{
    "esm": "0.4.0",
    "metadata": {
        "name": "DryDepositionGas",
        "description": "Wesley (1989) gas-phase dry deposition model. Computes dry deposition velocities v_* [m/s] and rates k_* [1/s] for 132 atmospheric trace gas species. Each species is characterized by its GasData (Dh2oPerDx, Hstar, Fo) constants from Wesely (1989) Table 2 and extended GEOS-Chem species data. The deposition velocity v_i = ifelse(lev==1,1,0) / (Ra + Rb_i + Rc_i) where Ra is the aerodynamic resistance (shared), Rb_i = 5*Sc_i^(2/3)/u_star is the quasi-laminar sublayer resistance, and Rc_i is the Wesley (1989) surface resistance computed inline with species constants substituted. Rain and dew are hardcoded false in the upstream DryDepositionGas builder. Migrated from AtmosphericDeposition.jl@e4468c79 src/dry_deposition.jl:323.",
        "tags": [
            "atmospheric_deposition",
            "dry-deposition",
            "wesley-1989",
            "multi-species",
            "gas-phase"
        ],
        "created": "2026-05-30T00:00:00Z",
        "authors": [
            "AtmosphericDeposition.jl contributors",
            "EarthSciModels migration (esm-qtoc)"
        ],
        "references": [
            {
                "citation": "Wesely, M. L. (1989). Parameterization of surface resistances to gaseous dry deposition in regional-scale numerical models. Atmospheric Environment 23(6), 1293-1304. doi:10.1016/0004-6981(89)90153-4"
            },
            {
                "citation": "Seinfeld, J. H., & Pandis, S. N. (2006). Atmospheric Chemistry and Physics: From Air Pollution to Climate Change (2nd ed.). Wiley. Eqs. 19.13-19.14 (aerodynamic resistance), 19.17 (quasi-laminar resistance for gases)."
            },
            {
                "citation": "Source: AtmosphericDeposition.jl/src/dry_deposition.jl (commit e4468c79c8dd4aae88646cd16d6bcf290874742c). `DryDepositionGas` builder function (line 323)."
            }
        ]
    },
    "models": {
        "DryDepositionGas": {
            "reference": {
                "citation": "Wesely, M. L. (1989). Parameterization of surface resistances to gaseous dry deposition in regional-scale numerical models. Atmospheric Environment 23(6), 1293-1304. doi:10.1016/0004-6981(89)90153-4",
                "notes": "source_ref: AtmosphericDeposition.jl@e4468c79c8dd4aae88646cd16d6bcf290874742c:src/dry_deposition.jl:323\n\nUpstream `DryDepositionGas` is an MTK builder that declares 12 scalar @parameters (season, landuse, z, del_P, z_0, u_star, L, rho_A, G, Ts, theta, lev) and builds equations depvel .~ DryDepGas.(...) and deprate .~ depvel .* g .* rho_A ./ del_P for 132 gas species. The species GasData (Dh2oPerDx, Hstar, Fo) are constants from src/wesley1989.jl. rain=false and dew=false are hardcoded in the builder.\n\nFor each species i, DryDepGas computes:\n  v_i = ifelse(lev==1,1,0) / (Ra + Rb_i + Rc_i)\n  Ra = ra(z, z0, u_star, L) [aerodynamic resistance, shared]\n  Rb_i = 5 * Sc_i^(2/3) / u_star [quasi-laminar, Seinfeld & Pandis Eq. 19.17]\n  Sc_i = mu(Ts) / (rho_A * dH2O(Ts) / Dh2oPerDx_i) [Schmidt number]\n  Rc_i = WesleySurfaceResistance(GasData_i, G, Ts-273, theta, season, landuse, false, false, isSO2_i, isO3_i)\n\nMigration approach: Ra, mu_air, Dh2o, and the 7 Wesley table lookups plus rs, rdc, correction are computed as shared observed variables. For each species, species-specific parts (Rb, Rc) are inlined into the v_* expression with GasData constants substituted. Since rain=false and dew=false, rlux=rlux_dry for all species and the rs rain/dew multiplier=1.\n\nSO2 (species 131): isSO2=true \u2192 rclx=r_clS_val, rgsx=r_gsS_val.\nO3 (species 114): isO3=true \u2192 rclx=r_clO_val, rgsx=r_gsO_val.\nAll other species: rclx=1/(Hstar/(1e5*r_clS)+Fo/r_clO), rgsx=1/(Hstar/(1e5*r_gsS)+Fo/r_gsO).\n\nTemperature convention: Ts parameter is in Kelvin (default 298K). mu_air and Dh2o use Ts directly (Kelvin). Wesley surface resistance uses Ts_c = Ts - 273 (Celsius), consistent with the upstream (Ts * T_unitless - 273) conversion in DryDepGas.\n\nNeutral-stability: L=0 is the neutral-stability sentinel. zeta and zeta_0 are reformulated as z*L/(L^2+1e-300) and z0*L/(L^2+1e-300) to avoid division by zero, per dry_aerosol.esm convention.\n\nTolerance (model-level rel=1e-6): closed-form algebraic system; interp.linear table lookups land on integer knots (zero blend weight), subsequent arithmetic accumulates ~1e-13 float64 round-off. rel=1e-6 provides comfortable headroom."
            },
            "tolerance": {
                "rel": 1e-06
            },
            "variables": {
                "season": {
                    "type": "parameter",
                    "units": "1",
                    "default": 1,
                    "description": "Wesley (1989) season index (1=midsummer, 2=autumn, 3=late autumn, 4=winter, 5=transitional). Upstream parameter `season`, default wesleyMidsummer=1."
                },
                "landuse": {
                    "type": "parameter",
                    "units": "1",
                    "default": 1,
                    "description": "Wesley (1989) land-use index (1=urban, 2=agricultural, 3=range, 4=deciduous, 5=coniferous, 6=mixed forest, 7=water, 8=barren, 9=wetland, 10=range/ag, 11=rocky shrubs). Upstream parameter `landuse`, default wesleyUrban=1."
                },
                "z": {
                    "type": "parameter",
                    "units": "m",
                    "default": 60.0,
                    "description": "Height from ground to mid-point of level 1 [m]."
                },
                "del_P": {
                    "type": "parameter",
                    "units": "Pa",
                    "default": 1520.0,
                    "description": "Pressure thickness of atmospheric level 1 [Pa]."
                },
                "z0": {
                    "type": "parameter",
                    "units": "m",
                    "default": 0.04,
                    "description": "Surface roughness length [m]. Upstream z_0."
                },
                "u_star": {
                    "type": "parameter",
                    "units": "m/s",
                    "default": 0.44,
                    "description": "Friction velocity [m/s]."
                },
                "L": {
                    "type": "parameter",
                    "units": "m",
                    "default": 0.0,
                    "description": "Monin-Obukhov length [m]. L=0 is the neutral-stability sentinel."
                },
                "rho_A": {
                    "type": "parameter",
                    "units": "kg/m^3",
                    "default": 1.2,
                    "description": "Air density [kg/m^3]. Upstream rho_A."
                },
                "G": {
                    "type": "parameter",
                    "units": "W/m^2",
                    "default": 300.0,
                    "description": "Solar irradiation [W/m^2]."
                },
                "Ts": {
                    "type": "parameter",
                    "units": "K",
                    "default": 298.0,
                    "description": "Surface air temperature [K]. Converted to Celsius (Ts_c = Ts - 273) for Wesley surface resistance."
                },
                "theta": {
                    "type": "parameter",
                    "units": "1",
                    "default": 0.0,
                    "description": "Slope of the local terrain [radians]. Upstream theta."
                },
                "lev": {
                    "type": "parameter",
                    "units": "1",
                    "default": 1,
                    "description": "Atmospheric level index. Deposition is active only when lev==1."
                },
                "g_const": {
                    "type": "parameter",
                    "units": "m/s^2",
                    "default": 9.81,
                    "description": "Gravitational acceleration [m/s^2]. Upstream @constants g."
                },
                "kappa": {
                    "type": "parameter",
                    "units": "1",
                    "default": 0.4,
                    "description": "Von Karman constant. Upstream @constants kappa."
                },
                "Ts_c": {
                    "type": "observed",
                    "units": "1",
                    "description": "Surface temperature in Celsius, Ts_c = Ts - 273. Passed to WesleySurfaceResistance (which uses Celsius).",
                    "expression": {
                        "op": "-",
                        "args": [
                            "Ts",
                            273.0
                        ]
                    }
                },
                "L2_eps": {
                    "type": "observed",
                    "units": "m^2",
                    "description": "L^2 + 1e-300 denominator used to regularize division by L at neutral stability.",
                    "expression": {
                        "op": "+",
                        "args": [
                            {
                                "op": "*",
                                "args": [
                                    "L",
                                    "L"
                                ]
                            },
                            1e-300
                        ]
                    }
                },
                "zeta": {
                    "type": "observed",
                    "units": "1",
                    "description": "Monin-Obukhov stability parameter z/L (regularized to avoid division by zero at L=0).",
                    "expression": {
                        "op": "/",
                        "args": [
                            {
                                "op": "*",
                                "args": [
                                    "z",
                                    "L"
                                ]
                            },
                            "L2_eps"
                        ]
                    }
                },
                "zeta_0": {
                    "type": "observed",
                    "units": "1",
                    "description": "Monin-Obukhov stability parameter z0/L (regularized).",
                    "expression": {
                        "op": "/",
                        "args": [
                            {
                                "op": "*",
                                "args": [
                                    "z0",
                                    "L"
                                ]
                            },
                            "L2_eps"
                        ]
                    }
                },
                "ra_neutral_stable": {
                    "type": "observed",
                    "units": "s/m",
                    "description": "Aerodynamic resistance for neutral/stable conditions (zeta >= 0). Stable: adds 4.7*(zeta-zeta_0) term.",
                    "expression": {
                        "op": "ifelse",
                        "args": [
                            {
                                "op": "<",
                                "args": [
                                    0,
                                    "zeta"
                                ]
                            },
                            {
                                "op": "*",
                                "args": [
                                    {
                                        "op": "/",
                                        "args": [
                                            1,
                                            {
                                                "op": "*",
                                                "args": [
                                                    "kappa",
                                                    "u_star"
                                                ]
                                            }
                                        ]
                                    },
                                    {
                                        "op": "+",
                                        "args": [
                                            {
                                                "op": "log",
                                                "args": [
                                                    {
                                                        "op": "/",
                                                        "args": [
                                                            "z",
                                                            "z0"
                                                        ]
                                                    }
                                                ]
                                            },
                                            {
                                                "op": "*",
                                                "args": [
                                                    4.7,
                                                    {
                                                        "op": "-",
                                                        "args": [
                                                            "zeta",
                                                            "zeta_0"
                                                        ]
                                                    }
                                                ]
                                            }
                                        ]
                                    }
                                ]
                            },
                            {
                                "op": "*",
                                "args": [
                                    {
                                        "op": "/",
                                        "args": [
                                            1,
                                            {
                                                "op": "*",
                                                "args": [
                                                    "kappa",
                                                    "u_star"
                                                ]
                                            }
                                        ]
                                    },
                                    {
                                        "op": "log",
                                        "args": [
                                            {
                                                "op": "/",
                                                "args": [
                                                    "z",
                                                    "z0"
                                                ]
                                            }
                                        ]
                                    }
                                ]
                            }
                        ]
                    }
                },
                "i_unstable": {
                    "type": "observed",
                    "units": "1",
                    "description": "Guard flag: 1 when zeta<0 (unstable), 0 otherwise. Prevents domain error in eta calculation.",
                    "expression": {
                        "op": "ifelse",
                        "args": [
                            {
                                "op": "<",
                                "args": [
                                    "zeta",
                                    0
                                ]
                            },
                            1,
                            0
                        ]
                    }
                },
                "eta_0": {
                    "type": "observed",
                    "units": "1",
                    "description": "Stability correction factor eta_0 = (1 - 15*zeta_0*i_unstable)^(1/4) for unstable regime.",
                    "expression": {
                        "op": "^",
                        "args": [
                            {
                                "op": "-",
                                "args": [
                                    1,
                                    {
                                        "op": "*",
                                        "args": [
                                            15,
                                            "zeta_0",
                                            "i_unstable"
                                        ]
                                    }
                                ]
                            },
                            0.25
                        ]
                    }
                },
                "eta": {
                    "type": "observed",
                    "units": "1",
                    "description": "Stability correction factor eta = (1 - 15*zeta*i_unstable)^(1/4) for unstable regime.",
                    "expression": {
                        "op": "^",
                        "args": [
                            {
                                "op": "-",
                                "args": [
                                    1,
                                    {
                                        "op": "*",
                                        "args": [
                                            15,
                                            "zeta",
                                            "i_unstable"
                                        ]
                                    }
                                ]
                            },
                            0.25
                        ]
                    }
                },
                "Ra": {
                    "type": "observed",
                    "units": "s/m",
                    "description": "Aerodynamic resistance Ra [s/m] (Seinfeld & Pandis 2006 Eq. 19.13-19.14). Three stability regimes: unstable (zeta<0), neutral (zeta=0), stable (zeta>0).",
                    "expression": {
                        "op": "ifelse",
                        "args": [
                            {
                                "op": "<",
                                "args": [
                                    "zeta",
                                    0
                                ]
                            },
                            {
                                "op": "*",
                                "args": [
                                    {
                                        "op": "/",
                                        "args": [
                                            1,
                                            {
                                                "op": "*",
                                                "args": [
                                                    "kappa",
                                                    "u_star"
                                                ]
                                            }
                                        ]
                                    },
                                    {
                                        "op": "+",
                                        "args": [
                                            {
                                                "op": "log",
                                                "args": [
                                                    {
                                                        "op": "/",
                                                        "args": [
                                                            "z",
                                                            "z0"
                                                        ]
                                                    }
                                                ]
                                            },
                                            {
                                                "op": "log",
                                                "args": [
                                                    {
                                                        "op": "/",
                                                        "args": [
                                                            {
                                                                "op": "*",
                                                                "args": [
                                                                    {
                                                                        "op": "+",
                                                                        "args": [
                                                                            {
                                                                                "op": "^",
                                                                                "args": [
                                                                                    "eta_0",
                                                                                    2
                                                                                ]
                                                                            },
                                                                            1
                                                                        ]
                                                                    },
                                                                    {
                                                                        "op": "^",
                                                                        "args": [
                                                                            {
                                                                                "op": "+",
                                                                                "args": [
                                                                                    "eta_0",
                                                                                    1
                                                                                ]
                                                                            },
                                                                            2
                                                                        ]
                                                                    }
                                                                ]
                                                            },
                                                            {
                                                                "op": "*",
                                                                "args": [
                                                                    {
                                                                        "op": "+",
                                                                        "args": [
                                                                            {
                                                                                "op": "^",
                                                                                "args": [
                                                                                    "eta",
                                                                                    2
                                                                                ]
                                                                            },
                                                                            1
                                                                        ]
                                                                    },
                                                                    {
                                                                        "op": "^",
                                                                        "args": [
                                                                            {
                                                                                "op": "+",
                                                                                "args": [
                                                                                    "eta",
                                                                                    1
                                                                                ]
                                                                            },
                                                                            2
                                                                        ]
                                                                    }
                                                                ]
                                                            }
                                                        ]
                                                    }
                                                ]
                                            },
                                            {
                                                "op": "*",
                                                "args": [
                                                    2,
                                                    {
                                                        "op": "-",
                                                        "args": [
                                                            {
                                                                "op": "atan",
                                                                "args": [
                                                                    "eta"
                                                                ]
                                                            },
                                                            {
                                                                "op": "atan",
                                                                "args": [
                                                                    "eta_0"
                                                                ]
                                                            }
                                                        ]
                                                    }
                                                ]
                                            }
                                        ]
                                    }
                                ]
                            },
                            "ra_neutral_stable"
                        ]
                    }
                },
                "mu_air": {
                    "type": "observed",
                    "units": "kg/(m*s)",
                    "description": "Dynamic viscosity of air [kg/(m*s)] (mu(Ts), Ts in Kelvin).",
                    "expression": {
                        "op": "/",
                        "args": [
                            {
                                "op": "*",
                                "args": [
                                    1.458e-06,
                                    {
                                        "op": "^",
                                        "args": [
                                            "Ts",
                                            1.5
                                        ]
                                    }
                                ]
                            },
                            {
                                "op": "+",
                                "args": [
                                    "Ts",
                                    110.4
                                ]
                            }
                        ]
                    }
                },
                "Dh2o": {
                    "type": "observed",
                    "units": "m^2/s",
                    "description": "Molecular diffusivity of water vapor in air [m^2/s] (dH2O(Ts), Ts in Kelvin).",
                    "expression": {
                        "op": "+",
                        "args": [
                            -2.775e-06,
                            {
                                "op": "*",
                                "args": [
                                    4.479e-08,
                                    "Ts"
                                ]
                            },
                            {
                                "op": "*",
                                "args": [
                                    1.656e-10,
                                    {
                                        "op": "^",
                                        "args": [
                                            "Ts",
                                            2
                                        ]
                                    }
                                ]
                            }
                        ]
                    }
                },
                "table_index": {
                    "type": "observed",
                    "units": "1",
                    "description": "1-D table index into the 5x11 Wesley (1989) resistance tables, column-major flattened: (iLandUse-1)*5 + iSeason.",
                    "expression": {
                        "op": "+",
                        "args": [
                            {
                                "op": "*",
                                "args": [
                                    {
                                        "op": "-",
                                        "args": [
                                            "landuse",
                                            1
                                        ]
                                    },
                                    5
                                ]
                            },
                            "season"
                        ]
                    }
                },
                "r_i_val": {
                    "type": "observed",
                    "units": "s/m",
                    "description": "Wesley (1989) minimum stomatal resistance r_i [s/m] for the current season/land-use, looked up from the 5x11 r_i table (column-major, axis [1..55]) at table_index.",
                    "expression": {
                        "op": "fn",
                        "name": "interp.linear",
                        "args": [
                            {
                                "op": "const",
                                "args": [],
                                "value": [
                                    9.999999562023526e+24,
                                    9.999999562023526e+24,
                                    9.999999562023526e+24,
                                    9.999999562023526e+24,
                                    9.999999562023526e+24,
                                    60.0,
                                    9.999999562023526e+24,
                                    9.999999562023526e+24,
                                    9.999999562023526e+24,
                                    120.0,
                                    120.0,
                                    9.999999562023526e+24,
                                    9.999999562023526e+24,
                                    9.999999562023526e+24,
                                    240.0,
                                    70.0,
                                    9.999999562023526e+24,
                                    9.999999562023526e+24,
                                    9.999999562023526e+24,
                                    140.0,
                                    130.0,
                                    250.0,
                                    250.0,
                                    400.0,
                                    250.0,
                                    100.0,
                                    500.0,
                                    500.0,
                                    800.0,
                                    190.0,
                                    9.999999562023526e+24,
                                    9.999999562023526e+24,
                                    9.999999562023526e+24,
                                    9.999999562023526e+24,
                                    9.999999562023526e+24,
                                    9.999999562023526e+24,
                                    9.999999562023526e+24,
                                    9.999999562023526e+24,
                                    9.999999562023526e+24,
                                    9.999999562023526e+24,
                                    80.0,
                                    9.999999562023526e+24,
                                    9.999999562023526e+24,
                                    9.999999562023526e+24,
                                    160.0,
                                    100.0,
                                    9.999999562023526e+24,
                                    9.999999562023526e+24,
                                    9.999999562023526e+24,
                                    200.0,
                                    150.0,
                                    9.999999562023526e+24,
                                    9.999999562023526e+24,
                                    9.999999562023526e+24,
                                    300.0
                                ]
                            },
                            {
                                "op": "const",
                                "args": [],
                                "value": [
                                    1,
                                    2,
                                    3,
                                    4,
                                    5,
                                    6,
                                    7,
                                    8,
                                    9,
                                    10,
                                    11,
                                    12,
                                    13,
                                    14,
                                    15,
                                    16,
                                    17,
                                    18,
                                    19,
                                    20,
                                    21,
                                    22,
                                    23,
                                    24,
                                    25,
                                    26,
                                    27,
                                    28,
                                    29,
                                    30,
                                    31,
                                    32,
                                    33,
                                    34,
                                    35,
                                    36,
                                    37,
                                    38,
                                    39,
                                    40,
                                    41,
                                    42,
                                    43,
                                    44,
                                    45,
                                    46,
                                    47,
                                    48,
                                    49,
                                    50,
                                    51,
                                    52,
                                    53,
                                    54,
                                    55
                                ]
                            },
                            "table_index"
                        ]
                    }
                },
                "r_lu_val": {
                    "type": "observed",
                    "units": "s/m",
                    "description": "Wesley (1989) cuticle resistance r_lu [s/m] for the current season/land-use.",
                    "expression": {
                        "op": "fn",
                        "name": "interp.linear",
                        "args": [
                            {
                                "op": "const",
                                "args": [],
                                "value": [
                                    9.999999562023526e+24,
                                    9.999999562023526e+24,
                                    9.999999562023526e+24,
                                    9.999999562023526e+24,
                                    9.999999562023526e+24,
                                    2000.0,
                                    9000.0,
                                    9.999999562023526e+24,
                                    9.999999562023526e+24,
                                    4000.0,
                                    2000.0,
                                    9000.0,
                                    9000.0,
                                    9.999999562023526e+24,
                                    4000.0,
                                    2000.0,
                                    9000.0,
                                    9000.0,
                                    9.999999562023526e+24,
                                    4000.0,
                                    2000.0,
                                    4000.0,
                                    4000.0,
                                    6000.0,
                                    2000.0,
                                    2000.0,
                                    8000.0,
                                    8000.0,
                                    9000.0,
                                    3000.0,
                                    9.999999562023526e+24,
                                    9.999999562023526e+24,
                                    9.999999562023526e+24,
                                    9.999999562023526e+24,
                                    9.999999562023526e+24,
                                    9.999999562023526e+24,
                                    9.999999562023526e+24,
                                    9.999999562023526e+24,
                                    9.999999562023526e+24,
                                    9.999999562023526e+24,
                                    2500.0,
                                    9000.0,
                                    9000.0,
                                    9000.0,
                                    4000.0,
                                    2000.0,
                                    9000.0,
                                    9000.0,
                                    9000.0,
                                    4000.0,
                                    4000.0,
                                    9000.0,
                                    9000.0,
                                    9000.0,
                                    8000.0
                                ]
                            },
                            {
                                "op": "const",
                                "args": [],
                                "value": [
                                    1,
                                    2,
                                    3,
                                    4,
                                    5,
                                    6,
                                    7,
                                    8,
                                    9,
                                    10,
                                    11,
                                    12,
                                    13,
                                    14,
                                    15,
                                    16,
                                    17,
                                    18,
                                    19,
                                    20,
                                    21,
                                    22,
                                    23,
                                    24,
                                    25,
                                    26,
                                    27,
                                    28,
                                    29,
                                    30,
                                    31,
                                    32,
                                    33,
                                    34,
                                    35,
                                    36,
                                    37,
                                    38,
                                    39,
                                    40,
                                    41,
                                    42,
                                    43,
                                    44,
                                    45,
                                    46,
                                    47,
                                    48,
                                    49,
                                    50,
                                    51,
                                    52,
                                    53,
                                    54,
                                    55
                                ]
                            },
                            "table_index"
                        ]
                    }
                },
                "r_ac_val": {
                    "type": "observed",
                    "units": "s/m",
                    "description": "Wesley (1989) lower-canopy/ground aerodynamic resistance r_ac [s/m].",
                    "expression": {
                        "op": "fn",
                        "name": "interp.linear",
                        "args": [
                            {
                                "op": "const",
                                "args": [],
                                "value": [
                                    100.0,
                                    100.0,
                                    100.0,
                                    100.0,
                                    100.0,
                                    200.0,
                                    150.0,
                                    10.0,
                                    10.0,
                                    50.0,
                                    100.0,
                                    100.0,
                                    100.0,
                                    10.0,
                                    80.0,
                                    2000.0,
                                    1500.0,
                                    1000.0,
                                    1000.0,
                                    1200.0,
                                    2000.0,
                                    2000.0,
                                    2000.0,
                                    2000.0,
                                    2000.0,
                                    2000.0,
                                    1700.0,
                                    1500.0,
                                    1500.0,
                                    1500.0,
                                    0.0,
                                    0.0,
                                    0.0,
                                    0.0,
                                    0.0,
                                    0.0,
                                    0.0,
                                    0.0,
                                    0.0,
                                    0.0,
                                    300.0,
                                    200.0,
                                    100.0,
                                    50.0,
                                    200.0,
                                    150.0,
                                    120.0,
                                    50.0,
                                    10.0,
                                    60.0,
                                    200.0,
                                    140.0,
                                    120.0,
                                    50.0,
                                    120.0
                                ]
                            },
                            {
                                "op": "const",
                                "args": [],
                                "value": [
                                    1,
                                    2,
                                    3,
                                    4,
                                    5,
                                    6,
                                    7,
                                    8,
                                    9,
                                    10,
                                    11,
                                    12,
                                    13,
                                    14,
                                    15,
                                    16,
                                    17,
                                    18,
                                    19,
                                    20,
                                    21,
                                    22,
                                    23,
                                    24,
                                    25,
                                    26,
                                    27,
                                    28,
                                    29,
                                    30,
                                    31,
                                    32,
                                    33,
                                    34,
                                    35,
                                    36,
                                    37,
                                    38,
                                    39,
                                    40,
                                    41,
                                    42,
                                    43,
                                    44,
                                    45,
                                    46,
                                    47,
                                    48,
                                    49,
                                    50,
                                    51,
                                    52,
                                    53,
                                    54,
                                    55
                                ]
                            },
                            "table_index"
                        ]
                    }
                },
                "r_gsS_val": {
                    "type": "observed",
                    "units": "s/m",
                    "description": "Wesley (1989) SO2 ground/soil resistance r_gsS [s/m].",
                    "expression": {
                        "op": "fn",
                        "name": "interp.linear",
                        "args": [
                            {
                                "op": "const",
                                "args": [],
                                "value": [
                                    400.0,
                                    400.0,
                                    400.0,
                                    100.0,
                                    500.0,
                                    150.0,
                                    200.0,
                                    150.0,
                                    100.0,
                                    150.0,
                                    350.0,
                                    350.0,
                                    350.0,
                                    100.0,
                                    350.0,
                                    500.0,
                                    500.0,
                                    500.0,
                                    100.0,
                                    500.0,
                                    500.0,
                                    500.0,
                                    500.0,
                                    100.0,
                                    500.0,
                                    100.0,
                                    100.0,
                                    200.0,
                                    100.0,
                                    200.0,
                                    0.0,
                                    0.0,
                                    0.0,
                                    0.0,
                                    0.0,
                                    1000.0,
                                    1000.0,
                                    1000.0,
                                    1000.0,
                                    1000.0,
                                    0.0,
                                    0.0,
                                    0.0,
                                    100.0,
                                    0.0,
                                    220.0,
                                    300.0,
                                    200.0,
                                    100.0,
                                    250.0,
                                    40.0,
                                    400.0,
                                    400.0,
                                    50.0,
                                    40.0
                                ]
                            },
                            {
                                "op": "const",
                                "args": [],
                                "value": [
                                    1,
                                    2,
                                    3,
                                    4,
                                    5,
                                    6,
                                    7,
                                    8,
                                    9,
                                    10,
                                    11,
                                    12,
                                    13,
                                    14,
                                    15,
                                    16,
                                    17,
                                    18,
                                    19,
                                    20,
                                    21,
                                    22,
                                    23,
                                    24,
                                    25,
                                    26,
                                    27,
                                    28,
                                    29,
                                    30,
                                    31,
                                    32,
                                    33,
                                    34,
                                    35,
                                    36,
                                    37,
                                    38,
                                    39,
                                    40,
                                    41,
                                    42,
                                    43,
                                    44,
                                    45,
                                    46,
                                    47,
                                    48,
                                    49,
                                    50,
                                    51,
                                    52,
                                    53,
                                    54,
                                    55
                                ]
                            },
                            "table_index"
                        ]
                    }
                },
                "r_gsO_val": {
                    "type": "observed",
                    "units": "s/m",
                    "description": "Wesley (1989) O3 ground/soil resistance r_gsO [s/m].",
                    "expression": {
                        "op": "fn",
                        "name": "interp.linear",
                        "args": [
                            {
                                "op": "const",
                                "args": [],
                                "value": [
                                    300.0,
                                    300.0,
                                    300.0,
                                    600.0,
                                    300.0,
                                    150.0,
                                    150.0,
                                    150.0,
                                    3500.0,
                                    150.0,
                                    200.0,
                                    200.0,
                                    200.0,
                                    3500.0,
                                    200.0,
                                    200.0,
                                    200.0,
                                    200.0,
                                    3500.0,
                                    200.0,
                                    200.0,
                                    200.0,
                                    200.0,
                                    3500.0,
                                    200.0,
                                    300.0,
                                    300.0,
                                    300.0,
                                    3500.0,
                                    300.0,
                                    2000.0,
                                    2000.0,
                                    2000.0,
                                    2000.0,
                                    2000.0,
                                    400.0,
                                    400.0,
                                    400.0,
                                    400.0,
                                    400.0,
                                    1000.0,
                                    800.0,
                                    1000.0,
                                    3500.0,
                                    1000.0,
                                    180.0,
                                    180.0,
                                    180.0,
                                    3500.0,
                                    180.0,
                                    200.0,
                                    200.0,
                                    20.0,
                                    3500.0,
                                    200.0
                                ]
                            },
                            {
                                "op": "const",
                                "args": [],
                                "value": [
                                    1,
                                    2,
                                    3,
                                    4,
                                    5,
                                    6,
                                    7,
                                    8,
                                    9,
                                    10,
                                    11,
                                    12,
                                    13,
                                    14,
                                    15,
                                    16,
                                    17,
                                    18,
                                    19,
                                    20,
                                    21,
                                    22,
                                    23,
                                    24,
                                    25,
                                    26,
                                    27,
                                    28,
                                    29,
                                    30,
                                    31,
                                    32,
                                    33,
                                    34,
                                    35,
                                    36,
                                    37,
                                    38,
                                    39,
                                    40,
                                    41,
                                    42,
                                    43,
                                    44,
                                    45,
                                    46,
                                    47,
                                    48,
                                    49,
                                    50,
                                    51,
                                    52,
                                    53,
                                    54,
                                    55
                                ]
                            },
                            "table_index"
                        ]
                    }
                },
                "r_clS_val": {
                    "type": "observed",
                    "units": "s/m",
                    "description": "Wesley (1989) SO2 lower-canopy resistance r_clS [s/m].",
                    "expression": {
                        "op": "fn",
                        "name": "interp.linear",
                        "args": [
                            {
                                "op": "const",
                                "args": [],
                                "value": [
                                    9.999999562023526e+24,
                                    9.999999562023526e+24,
                                    9.999999562023526e+24,
                                    9.999999562023526e+24,
                                    9.999999562023526e+24,
                                    2000.0,
                                    9000.0,
                                    9.999999562023526e+24,
                                    9.999999562023526e+24,
                                    4000.0,
                                    2000.0,
                                    9000.0,
                                    9000.0,
                                    9.999999562023526e+24,
                                    4000.0,
                                    2000.0,
                                    9000.0,
                                    9000.0,
                                    9000.0,
                                    4000.0,
                                    2000.0,
                                    2000.0,
                                    3000.0,
                                    200.0,
                                    2000.0,
                                    2000.0,
                                    4000.0,
                                    6000.0,
                                    400.0,
                                    3000.0,
                                    9.999999562023526e+24,
                                    9.999999562023526e+24,
                                    9.999999562023526e+24,
                                    9.999999562023526e+24,
                                    9.999999562023526e+24,
                                    9.999999562023526e+24,
                                    9.999999562023526e+24,
                                    9.999999562023526e+24,
                                    9.999999562023526e+24,
                                    9.999999562023526e+24,
                                    2500.0,
                                    9000.0,
                                    9000.0,
                                    9000.0,
                                    4000.0,
                                    2000.0,
                                    9000.0,
                                    9000.0,
                                    9.999999562023526e+24,
                                    4000.0,
                                    4000.0,
                                    9000.0,
                                    9000.0,
                                    9000.0,
                                    8000.0
                                ]
                            },
                            {
                                "op": "const",
                                "args": [],
                                "value": [
                                    1,
                                    2,
                                    3,
                                    4,
                                    5,
                                    6,
                                    7,
                                    8,
                                    9,
                                    10,
                                    11,
                                    12,
                                    13,
                                    14,
                                    15,
                                    16,
                                    17,
                                    18,
                                    19,
                                    20,
                                    21,
                                    22,
                                    23,
                                    24,
                                    25,
                                    26,
                                    27,
                                    28,
                                    29,
                                    30,
                                    31,
                                    32,
                                    33,
                                    34,
                                    35,
                                    36,
                                    37,
                                    38,
                                    39,
                                    40,
                                    41,
                                    42,
                                    43,
                                    44,
                                    45,
                                    46,
                                    47,
                                    48,
                                    49,
                                    50,
                                    51,
                                    52,
                                    53,
                                    54,
                                    55
                                ]
                            },
                            "table_index"
                        ]
                    }
                },
                "r_clO_val": {
                    "type": "observed",
                    "units": "s/m",
                    "description": "Wesley (1989) O3 lower-canopy resistance r_clO [s/m].",
                    "expression": {
                        "op": "fn",
                        "name": "interp.linear",
                        "args": [
                            {
                                "op": "const",
                                "args": [],
                                "value": [
                                    9.999999562023526e+24,
                                    9.999999562023526e+24,
                                    9.999999562023526e+24,
                                    9.999999562023526e+24,
                                    9.999999562023526e+24,
                                    1000.0,
                                    400.0,
                                    1000.0,
                                    1000.0,
                                    1000.0,
                                    1000.0,
                                    400.0,
                                    400.0,
                                    1000.0,
                                    500.0,
                                    1000.0,
                                    400.0,
                                    400.0,
                                    400.0,
                                    500.0,
                                    1000.0,
                                    1000.0,
                                    1000.0,
                                    1500.0,
                                    1500.0,
                                    1000.0,
                                    600.0,
                                    600.0,
                                    600.0,
                                    700.0,
                                    9.999999562023526e+24,
                                    9.999999562023526e+24,
                                    9.999999562023526e+24,
                                    9.999999562023526e+24,
                                    9.999999562023526e+24,
                                    9.999999562023526e+24,
                                    9.999999562023526e+24,
                                    9.999999562023526e+24,
                                    9.999999562023526e+24,
                                    9.999999562023526e+24,
                                    1000.0,
                                    400.0,
                                    800.0,
                                    800.0,
                                    600.0,
                                    1000.0,
                                    400.0,
                                    600.0,
                                    1000.0,
                                    800.0,
                                    1000.0,
                                    400.0,
                                    600.0,
                                    800.0,
                                    800.0
                                ]
                            },
                            {
                                "op": "const",
                                "args": [],
                                "value": [
                                    1,
                                    2,
                                    3,
                                    4,
                                    5,
                                    6,
                                    7,
                                    8,
                                    9,
                                    10,
                                    11,
                                    12,
                                    13,
                                    14,
                                    15,
                                    16,
                                    17,
                                    18,
                                    19,
                                    20,
                                    21,
                                    22,
                                    23,
                                    24,
                                    25,
                                    26,
                                    27,
                                    28,
                                    29,
                                    30,
                                    31,
                                    32,
                                    33,
                                    34,
                                    35,
                                    36,
                                    37,
                                    38,
                                    39,
                                    40,
                                    41,
                                    42,
                                    43,
                                    44,
                                    45,
                                    46,
                                    47,
                                    48,
                                    49,
                                    50,
                                    51,
                                    52,
                                    53,
                                    54,
                                    55
                                ]
                            },
                            "table_index"
                        ]
                    }
                },
                "rs": {
                    "type": "observed",
                    "units": "s/m",
                    "description": "Stomatal resistance rs [s/m] (Wesley 1989 Eq. 3). Uses Ts_c (Celsius). With rain=dew=false the wet-surface multiplier=1. Capped at 1e25 when Ts_c <= 0.1\u00b0C.",
                    "expression": {
                        "op": "ifelse",
                        "args": [
                            {
                                "op": "<=",
                                "args": [
                                    "Ts_c",
                                    0.1
                                ]
                            },
                            1e+25,
                            {
                                "op": "*",
                                "args": [
                                    "r_i_val",
                                    {
                                        "op": "+",
                                        "args": [
                                            1,
                                            {
                                                "op": "^",
                                                "args": [
                                                    {
                                                        "op": "/",
                                                        "args": [
                                                            200.0,
                                                            {
                                                                "op": "+",
                                                                "args": [
                                                                    "G",
                                                                    1.0
                                                                ]
                                                            }
                                                        ]
                                                    },
                                                    2
                                                ]
                                            }
                                        ]
                                    },
                                    {
                                        "op": "/",
                                        "args": [
                                            400.0,
                                            {
                                                "op": "*",
                                                "args": [
                                                    "Ts_c",
                                                    {
                                                        "op": "-",
                                                        "args": [
                                                            40.0,
                                                            "Ts_c"
                                                        ]
                                                    }
                                                ]
                                            }
                                        ]
                                    }
                                ]
                            }
                        ]
                    }
                },
                "rdc": {
                    "type": "observed",
                    "units": "s/m",
                    "description": "Lower-canopy aerodynamic resistance rdc [s/m] (Wesley 1989). Independent of species.",
                    "expression": {
                        "op": "/",
                        "args": [
                            {
                                "op": "*",
                                "args": [
                                    100.0,
                                    {
                                        "op": "+",
                                        "args": [
                                            1.0,
                                            {
                                                "op": "/",
                                                "args": [
                                                    1000.0,
                                                    {
                                                        "op": "+",
                                                        "args": [
                                                            "G",
                                                            10.0
                                                        ]
                                                    }
                                                ]
                                            }
                                        ]
                                    }
                                ]
                            },
                            {
                                "op": "+",
                                "args": [
                                    1.0,
                                    {
                                        "op": "*",
                                        "args": [
                                            1000.0,
                                            "theta"
                                        ]
                                    }
                                ]
                            }
                        ]
                    }
                },
                "correction": {
                    "type": "observed",
                    "units": "s/m",
                    "description": "Cold-temperature correction for all surface resistances. 1000*exp(-Ts_c-4) when Ts_c<0, else 0.",
                    "expression": {
                        "op": "ifelse",
                        "args": [
                            {
                                "op": "<",
                                "args": [
                                    "Ts_c",
                                    0.0
                                ]
                            },
                            {
                                "op": "*",
                                "args": [
                                    1000.0,
                                    {
                                        "op": "exp",
                                        "args": [
                                            {
                                                "op": "-",
                                                "args": [
                                                    {
                                                        "op": "-",
                                                        "args": [
                                                            "Ts_c"
                                                        ]
                                                    },
                                                    4
                                                ]
                                            }
                                        ]
                                    }
                                ]
                            },
                            0.0
                        ]
                    }
                },
                "v_NO": {
                    "type": "observed",
                    "units": "m/s",
                    "description": "NO dry deposition velocity [m/s]. GasData: Dh2oPerDx=1.3, Hstar=0.003, Fo=0.0. isSO2=False, isO3=False. rain=false, dew=false (hardcoded in DryDepositionGas).",
                    "expression": {
                        "op": "/",
                        "args": [
                            {
                                "op": "ifelse",
                                "args": [
                                    {
                                        "op": "==",
                                        "args": [
                                            "lev",
                                            1
                                        ]
                                    },
                                    1,
                                    0
                                ]
                            },
                            {
                                "op": "+",
                                "args": [
                                    "Ra",
                                    {
                                        "op": "/",
                                        "args": [
                                            {
                                                "op": "*",
                                                "args": [
                                                    5.0,
[...]
                                                                                    },
                                                                                    {
                                                                                        "op": "/",
                                                                                        "args": [
                                                                                            1.0,
                                                                                            100.50666666666666
                                                                                        ]
                                                                                    }
                                                                                ]
                                                                            }
                                                                        ]
                                                                    },
                                                                    {
                                                                        "op": "/",
                                                                        "args": [
                                                                            1.0,
                                                                            {
                                                                                "op": "+",
                                                                                "args": [
                                                                                    {
                                                                                        "op": "/",
                                                                                        "args": [
                                                                                            "r_lu_val",
                                                                                            1.0152
                                                                                        ]
                                                                                    },
                                                                                    "correction"
                                                                                ]
                                                                            }
                                                                        ]
                                                                    },
                                                                    {
                                                                        "op": "/",
                                                                        "args": [
                                                                            1.0,
                                                                            {
                                                                                "op": "+",
                                                                                "args": [
                                                                                    "rdc",
                                                                                    {
                                                                                        "op": "/",
                                                                                        "args": [
                                                                                            1.0,
                                                                                            {
                                                                                                "op": "+",
                                                                                                "args": [
                                                                                                    {
                                                                                                        "op": "/",
                                                                                                        "args": [
                                                                                                            1520.0,
                                                                                                            {
                                                                                                                "op": "*",
                                                                                                                "args": [
                                                                                                                    100000.0,
                                                                                                                    "r_clS_val"
                                                                                                                ]
                                                                                                            }
                                                                                                        ]
                                                                                                    },
                                                                                                    {
                                                                                                        "op": "/",
                                                                                                        "args": [
                                                                                                            1.0,
                                                                                                            "r_clO_val"
                                                                                                        ]
                                                                                                    }
                                                                                                ]
                                                                                            }
                                                                                        ]
                                                                                    },
                                                                                    "correction"
                                                                                ]
                                                                            }
                                                                        ]
                                                                    },
                                                                    {
                                                                        "op": "/",
                                                                        "args": [
                                                                            1.0,
                                                                            {
                                                                                "op": "+",
                                                                                "args": [
                                                                                    "r_ac_val",
                                                                                    {
                                                                                        "op": "/",
                                                                                        "args": [
                                                                                            1.0,
                                                                                            {
                                                                                                "op": "+",
                                                                                                "args": [
                                                                                                    {
                                                                                                        "op": "/",
                                                                                                        "args": [
                                                                                                            1520.0,
                                                                                                            {
                                                                                                                "op": "*",
                                                                                                                "args": [
                                                                                                                    100000.0,
                                                                                                                    "r_gsS_val"
                                                                                                                ]
                                                                                                            }
                                                                                                        ]
                                                                                                    },
                                                                                                    {
                                                                                                        "op": "/",
                                                                                                        "args": [
                                                                                                            1.0,
                                                                                                            "r_gsO_val"
                                                                                                        ]
                                                                                                    }
                                                                                                ]
                                                                                            }
                                                                                        ]
                                                                                    },
                                                                                    "correction"
                                                                                ]
                                                                            }
                                                                        ]
                                                                    }
                                                                ]
                                                            }
                                                        ]
                                                    },
                                                    10.0
                                                ]
                                            },
                                            9999.0
                                        ]
                                    }
                                ]
                            }
                        ]
                    }
                },
                "k_RCOOH": {
                    "type": "observed",
                    "units": "1/s",
                    "description": "RCOOH dry deposition rate [1/s] = v_RCOOH * g * rho_A / del_P.",
                    "expression": {
                        "op": "/",
                        "args": [
                            {
                                "op": "*",
                                "args": [
                                    "v_RCOOH",
                                    "g_const",
                                    "rho_A"
                                ]
                            },
                            "del_P"
                        ]
                    }
                }
            },
            "equations": [],
            "tests": [
                {
                    "id": "v_NO_standard",
                    "description": "NO deposition velocity (midsummer, rangeAg landuse=10, neutral L=0, 298K, lev=1). Low Hstar=3e-3, Fo=0.",
                    "parameter_overrides": {
                        "z": 50.0,
                        "z0": 0.04,
                        "u_star": 0.44,
                        "L": 0.0,
                        "rho_A": 1.2,
                        "G": 300.0,
                        "Ts": 298.0,
                        "theta": 0.0,
                        "season": 1.0,
                        "landuse": 10.0,
                        "lev": 1.0,
                        "del_P": 1520.0
                    },
                    "time_span": {
                        "start": 0.0,
                        "end": 1.0
                    },
                    "assertions": [
                        {
                            "variable": "v_NO",
                            "time": 0.0,
                            "expected": 9.951037421545818e-05,
                            "tolerance": {
                                "rel": 1e-06
                            }
                        },
                        {
                            "variable": "v_NO",
                            "time": 1.0,
                            "expected": 9.951037421545818e-05,
                            "tolerance": {
                                "rel": 1e-06
                            }
                        }
                    ]
                },
                {
                    "id": "v_O3_standard",
                    "description": "O3 deposition velocity. isO3=true: rclx=r_clO_val, rgsx=r_gsO_val.",
                    "parameter_overrides": {
                        "z": 50.0,
                        "z0": 0.04,
                        "u_star": 0.44,
                        "L": 0.0,
                        "rho_A": 1.2,
                        "G": 300.0,
                        "Ts": 298.0,
                        "theta": 0.0,
                        "season": 1.0,
                        "landuse": 10.0,
                        "lev": 1.0,
                        "del_P": 1520.0
                    },
                    "time_span": {
                        "start": 0.0,
                        "end": 1.0
                    },
                    "assertions": [
                        {
                            "variable": "v_O3",
                            "time": 0.0,
                            "expected": 0.005764245283191851,
                            "tolerance": {
                                "rel": 1e-06
                            }
                        }
                    ]
                },
                {
                    "id": "v_SO2_standard",
                    "description": "SO2 deposition velocity. isSO2=true: rclx=r_clS_val, rgsx=r_gsS_val.",
                    "parameter_overrides": {
                        "z": 50.0,
                        "z0": 0.04,
                        "u_star": 0.44,
                        "L": 0.0,
                        "rho_A": 1.2,
                        "G": 300.0,
                        "Ts": 298.0,
                        "theta": 0.0,
                        "season": 1.0,
                        "landuse": 10.0,
                        "lev": 1.0,
                        "del_P": 1520.0
                    },
                    "time_span": {
                        "start": 0.0,
                        "end": 1.0
                    },
                    "assertions": [
                        {
                            "variable": "v_SO2",
                            "time": 0.0,
                            "expected": 0.005141943517561404,
                            "tolerance": {
                                "rel": 1e-06
                            }
                        }
                    ]
                },
                {
                    "id": "lev2_zero",
                    "description": "lev=2: all deposition velocities are zero (non-surface layer).",
                    "parameter_overrides": {
                        "z": 50.0,
                        "z0": 0.04,
                        "u_star": 0.44,
                        "L": 0.0,
                        "rho_A": 1.2,
                        "G": 300.0,
                        "Ts": 298.0,
                        "theta": 0.0,
                        "season": 1.0,
                        "landuse": 10.0,
                        "lev": 2.0,
                        "del_P": 1520.0
                    },
                    "time_span": {
                        "start": 0.0,
                        "end": 1.0
                    },
                    "assertions": [
                        {
                            "variable": "v_NO",
                            "time": 0.0,
                            "expected": 0.0,
                            "tolerance": {
                                "abs": 1e-30
                            }
                        },
                        {
                            "variable": "v_O3",
                            "time": 0.0,
                            "expected": 0.0,
                            "tolerance": {
                                "abs": 1e-30
                            }
                        },
                        {
                            "variable": "v_SO2",
                            "time": 0.0,
                            "expected": 0.0,
                            "tolerance": {
                                "abs": 1e-30
                            }
                        }
                    ]
                },
                {
                    "id": "k_NO_standard",
                    "description": "k_NO = v_NO * g_const * rho_A / del_P.",
                    "parameter_overrides": {
                        "z": 50.0,
                        "z0": 0.04,
                        "u_star": 0.44,
                        "L": 0.0,
                        "rho_A": 1.2,
                        "G": 300.0,
                        "Ts": 298.0,
                        "theta": 0.0,
                        "season": 1.0,
                        "landuse": 10.0,
                        "lev": 1.0,
                        "del_P": 1520.0
                    },
                    "time_span": {
                        "start": 0.0,
                        "end": 1.0
                    },
                    "assertions": [
                        {
                            "variable": "k_NO",
                            "time": 0.0,
                            "expected": 7.706816613581405e-07,
                            "tolerance": {
                                "rel": 1e-06
                            }
                        }
                    ]
                }
            ]
        }
    }
}