{
    "reaction_systems": {
        "GEOSChemGasPhase": {
            "tests": [
                {
                    "id": "clean_troposphere",
                    "description": "Clean troposphere reference state (mdl-ode): T=285 K, P=101325 Pa (num_density=42.76 mol/m^3), daytime photolysis (j_NO2\u22480.005 1/s), low NOx ([NO]=50 ppt, [NO2]=200 ppt), low VOC ([ISOP]=200 ppt), background O3=30 ppb. Expected values from GasChem.jl/GEOSChemGasPhase via scripts/migrations/reference_values_geoschem_fullchem.jl.\n\nTolerance rationale (rel=1e-3): GEOS-Chem fullchem (~819 reactions) \u2014 1e-3 absorbs Rosenbrock23 (Julia upstream) \u2194 LSODA (Python ESS, cse=False per mdl-w1j to dodge the lambdify memory cliff) integrator-truncation gap over 600 s of stiff tropospheric chemistry. Tighter bands fail on radicals (OH, HO2) where step-size adaptation diverges between solvers.",
                    "initial_conditions": {
                        "NO": 0.05,
                        "O3": 30,
                        "ISOP": 0.2,
                        "NO2": 0.2,
                        "HO2": 4e-06,
                        "OH": 4e-06
                    },
                    "parameter_overrides": {
                        "T": 285.0,
                        "j_11": 0.005,
                        "num_density": 42.76236658521454
                    },
                    "time_span": {
                        "start": 0.0,
                        "end": 600.0
                    },
                    "tolerance": {
                        "rel": 0.001
                    },
                    "assertions": [
                        {
                            "expected": 30.021507202440155,
                            "time": 60,
                            "variable": "O3"
                        },
                        {
                            "expected": 30.059782891958424,
                            "time": 300,
                            "variable": "O3"
                        },
                        {
                            "expected": 30.081351650954094,
                            "time": 600,
                            "variable": "O3"
                        },
                        {
                            "expected": 0.056261292743874675,
                            "time": 60,
                            "variable": "NO"
                        },
                        {
                            "expected": 0.06895299789814631,
                            "time": 300,
                            "variable": "NO"
                        },
                        {
                            "expected": 0.07080376502914437,
                            "time": 600,
                            "variable": "NO"
                        },
                        {
                            "expected": 0.1997288734188468,
                            "time": 60,
                            "variable": "NO2"
                        },
                        {
                            "expected": 0.1869322858454441,
                            "time": 300,
                            "variable": "NO2"
                        },
                        {
                            "expected": 0.18393323047892784,
                            "time": 600,
                            "variable": "NO2"
                        },
                        {
                            "expected": 7.127546111348581e-05,
                            "time": 60,
                            "variable": "OH"
                        },
                        {
                            "expected": 4.306079890618432e-05,
                            "time": 300,
                            "variable": "OH"
                        },
                        {
                            "expected": 2.952345186177213e-05,
                            "time": 600,
                            "variable": "OH"
                        },
                        {
                            "expected": 0.006917799697469085,
                            "time": 60,
                            "variable": "HO2"
                        },
                        {
                            "expected": 0.003844291413890031,
                            "time": 300,
                            "variable": "HO2"
                        },
                        {
                            "expected": 0.002541329931484023,
                            "time": 600,
                            "variable": "HO2"
                        },
                        {
                            "expected": 0.00021714713716613777,
                            "time": 60,
                            "variable": "HNO3"
                        },
                        {
                            "expected": 0.0009564303676699033,
                            "time": 300,
                            "variable": "HNO3"
                        },
                        {
                            "expected": 0.0015401638749305074,
                            "time": 600,
                            "variable": "HNO3"
                        },
                        {
                            "expected": 99.99794974554626,
                            "time": 60,
                            "variable": "CO"
                        },
                        {
                            "expected": 99.99081694528205,
                            "time": 300,
                            "variable": "CO"
                        },
                        {
                            "expected": 99.98510169650277,
                            "time": 600,
                            "variable": "CO"
                        },
                        {
                            "expected": 0.19782333952811232,
                            "time": 60,
                            "variable": "ISOP"
                        },
                        {
                            "expected": 0.18998726539919703,
                            "time": 300,
                            "variable": "ISOP"
                        },
                        {
                            "expected": 0.1834448451458803,
                            "time": 600,
                            "variable": "ISOP"
                        },
                        {
                            "expected": 0.003840021997886387,
                            "time": 60,
                            "variable": "CH2O"
                        },
                        {
                            "expected": 0.012665992649021306,
                            "time": 300,
                            "variable": "CH2O"
                        },
                        {
                            "expected": 0.020342870123543393,
                            "time": 600,
                            "variable": "CH2O"
                        }
                    ]
                },
                {
                    "id": "polluted_urban",
                    "description": "Polluted urban reference state (mdl-ode): T=298 K, P=101325 Pa (num_density=40.89 mol/m^3), daytime (j_NO2\u22480.0149 1/s), high NOx ([NO]=10 ppb, [NO2]=20 ppb), high VOC ([ISOP]=2 ppb), elevated O3=70 ppb. Expected values from GasChem.jl/GEOSChemGasPhase via scripts/migrations/reference_values_geoschem_fullchem.jl.\n\nTolerance rationale (rel=1e-3): see clean_troposphere \u2014 same Rosenbrock23 (Julia) \u2194 LSODA (Python, cse=False per mdl-w1j) gap, applied to the high-NOx/high-VOC stiff regime where photochemical-smog cycling amplifies step-size-adaptation drift on radicals.",
                    "initial_conditions": {
                        "NO": 10,
                        "O3": 70,
                        "ISOP": 2,
                        "NO2": 20,
                        "HO2": 4e-06,
                        "OH": 4e-06
                    },
                    "parameter_overrides": {
                        "T": 298.0,
                        "j_11": 0.0149,
                        "num_density": 40.896894217403165
                    },
                    "time_span": {
                        "start": 0.0,
                        "end": 600.0
                    },
                    "tolerance": {
                        "rel": 0.001
                    },
                    "assertions": [
                        {
                            "expected": 69.31883937519184,
                            "time": 60,
                            "variable": "O3"
                        },
                        {
                            "expected": 69.31081873791699,
                            "time": 300,
                            "variable": "O3"
                        },
                        {
                            "expected": 69.33787271826904,
                            "time": 600,
                            "variable": "O3"
                        },
                        {
                            "expected": 9.264665131189348,
                            "time": 60,
                            "variable": "NO"
                        },
                        {
                            "expected": 9.220359406929552,
                            "time": 300,
                            "variable": "NO"
                        },
                        {
                            "expected": 9.20362431702005,
                            "time": 600,
                            "variable": "NO"
                        },
                        {
                            "expected": 20.730791172296005,
                            "time": 60,
                            "variable": "NO2"
                        },
                        {
                            "expected": 20.735871212364756,
                            "time": 300,
                            "variable": "NO2"
                        },
                        {
                            "expected": 20.705933661441637,
                            "time": 600,
                            "variable": "NO2"
                        },
                        {
                            "expected": 1.1080550093596504e-05,
                            "time": 60,
                            "variable": "OH"
                        },
                        {
                            "expected": 1.0206287503371786e-05,
                            "time": 300,
                            "variable": "OH"
                        },
                        {
                            "expected": 9.94758541244481e-06,
                            "time": 600,
                            "variable": "OH"
                        },
                        {
                            "expected": 6.928287204128085e-05,
                            "time": 60,
                            "variable": "HO2"
                        },
                        {
                            "expected": 6.327381532684154e-05,
                            "time": 300,
                            "variable": "HO2"
                        },
                        {
                            "expected": 6.119767909677837e-05,
                            "time": 600,
                            "variable": "HO2"
                        },
                        {
                            "expected": 0.008394270404176169,
                            "time": 60,
                            "variable": "HNO3"
                        },
                        {
                            "expected": 0.021858611681305096,
                            "time": 300,
                            "variable": "HNO3"
                        },
                        {
                            "expected": 0.03820935431224901,
                            "time": 600,
                            "variable": "HNO3"
                        },
                        {
                            "expected": 100.0005198544499,
                            "time": 60,
                            "variable": "CO"
                        },
                        {
                            "expected": 100.0039099246168,
                            "time": 300,
                            "variable": "CO"
                        },
                        {
                            "expected": 100.00807690100625,
                            "time": 600,
                            "variable": "CO"
                        },
                        {
                            "expected": 1.983295647838251,
                            "time": 60,
                            "variable": "ISOP"
                        },
                        {
                            "expected": 1.9343204199325714,
                            "time": 300,
                            "variable": "ISOP"
                        },
                        {
                            "expected": 1.8750170192861704,
                            "time": 600,
                            "variable": "ISOP"
                        },
                        {
                            "expected": 0.020977857964307078,
                            "time": 60,
                            "variable": "CH2O"
                        },
                        {
                            "expected": 0.059233811232337806,
                            "time": 300,
                            "variable": "CH2O"
                        },
                        {
                            "expected": 0.10556680478395639,
                            "time": 600,
                            "variable": "CH2O"
                        }
                    ]
                },
                {
                    "id": "upper_troposphere",
                    "description": "Upper-troposphere / lower-stratosphere reference state (mdl-ode): T=220 K, P=20000 Pa (num_density=10.94 mol/m^3, ~12 km), reduced photolysis (j_NO2\u22480.002 1/s), low NOx, no VOCs, O3=100 ppb. Expected values from GasChem.jl/GEOSChemGasPhase via scripts/migrations/reference_values_geoschem_fullchem.jl.\n\nTolerance rationale (rel=1e-3): see clean_troposphere \u2014 same Rosenbrock23 (Julia) \u2194 LSODA (Python, cse=False per mdl-w1j) gap. The cold/low-pressure regime exercises a different temperature/falloff branch of the rate-law expressions but the truncation profile is comparable.",
                    "initial_conditions": {
                        "NO": 0.05,
                        "O3": 100,
                        "ISOP": 0,
                        "NO2": 0.1,
                        "HO2": 4e-06,
                        "OH": 4e-06
                    },
                    "parameter_overrides": {
                        "T": 220.0,
                        "j_11": 0.002,
                        "num_density": 10.934458853631334
                    },
                    "time_span": {
                        "start": 0.0,
                        "end": 600.0
                    },
                    "tolerance": {
                        "rel": 0.001
                    },
                    "assertions": [
                        {
                            "expected": 100.00601380836895,
                            "time": 60,
                            "variable": "O3"
                        },
                        {
                            "expected": 100.02966270487204,
                            "time": 300,
                            "variable": "O3"
                        },
                        {
                            "expected": 100.04616517117661,
                            "time": 600,
                            "variable": "O3"
                        },
                        {
                            "expected": 0.04742735466469679,
                            "time": 60,
                            "variable": "NO"
                        },
                        {
                            "expected": 0.05573036865297078,
                            "time": 300,
                            "variable": "NO"
                        },
                        {
                            "expected": 0.0672781489643701,
                            "time": 600,
                            "variable": "NO"
                        },
                        {
                            "expected": 0.10529607066752467,
                            "time": 60,
                            "variable": "NO2"
                        },
                        {
                            "expected": 0.10181591649329386,
                            "time": 300,
                            "variable": "NO2"
                        },
                        {
                            "expected": 0.09077719237444574,
                            "time": 600,
                            "variable": "NO2"
                        },
                        {
                            "expected": 8.575127338991513e-05,
                            "time": 60,
                            "variable": "OH"
                        },
                        {
                            "expected": 7.784069145445508e-05,
                            "time": 300,
                            "variable": "OH"
                        },
                        {
                            "expected": 5.4595027867467036e-05,
                            "time": 600,
                            "variable": "OH"
                        },
                        {
                            "expected": 0.0012685608451182056,
                            "time": 60,
                            "variable": "HO2"
                        },
                        {
                            "expected": 0.0020084290825578117,
                            "time": 300,
                            "variable": "HO2"
                        },
                        {
                            "expected": 0.0014810206514481543,
                            "time": 600,
                            "variable": "HO2"
                        },
                        {
                            "expected": 2.153239072215632e-05,
                            "time": 60,
                            "variable": "HNO3"
                        },
                        {
                            "expected": 0.00015370804930544358,
                            "time": 300,
                            "variable": "HNO3"
                        },
                        {
                            "expected": 0.000261315802132951,
                            "time": 600,
                            "variable": "HNO3"
                        },
                        {
                            "expected": 99.99965362139638,
                            "time": 60,
                            "variable": "CO"
                        },
                        {
                            "expected": 99.99709171873653,
                            "time": 300,
                            "variable": "CO"
                        },
                        {
                            "expected": 99.99481373286696,
                            "time": 600,
                            "variable": "CO"
                        },
                        {
                            "expected": 0,
                            "time": 60,
                            "variable": "ISOP"
                        },
                        {
                            "expected": 0,
                            "time": 300,
                            "variable": "ISOP"
                        },
                        {
                            "expected": 0,
                            "time": 600,
                            "variable": "ISOP"
                        },
                        {
                            "expected": 0.0017745021327381955,
                            "time": 60,
                            "variable": "CH2O"
                        },
                        {
                            "expected": 0.004890747900530244,
                            "time": 300,
                            "variable": "CH2O"
                        },
                        {
                            "expected": 0.005642409394115645,
                            "time": 600,
                            "variable": "CH2O"
                        }
                    ]
                }
            ],
            "parameters": {
                "j_33": {
                    "default": 0
                },
                "j_152": {
                    "default": 0
                },
                "j_91": {
                    "default": 0
                },
                "j_92": {
                    "default": 0
                },
                "j_129": {
                    "default": 0
                },
                "k_cld2": {
                    "default": 0
                },
                "j_148": {
                    "default": 0
                },
                "j_85": {
                    "default": 0
                },
                "j_30": {
                    "default": 0
                },
                "j_46": {
                    "default": 0
                },
                "j_93": {
                    "default": 0
                },
                "j_63": {
                    "default": 0
                },
                "j_26": {
                    "default": 0
                },
                "j_77": {
                    "default": 0
                },
                "j_94": {
                    "default": 0
                },
                "j_155": {
                    "default": 0
                },
                "j_120": {
                    "default": 0
                },
                "j_42": {
                    "default": 0
                },
                "j_147": {
                    "default": 0
                },
                "j_70": {
                    "default": 0
                },
                "j_134": {
                    "default": 0
                },
                "k_mt6": {
                    "default": 0
                },
                "j_7": {
                    "default": 0
                },
                "j_41": {
                    "default": 0
                },
                "j_115": {
                    "default": 0
                },
                "j_27": {
                    "default": 0
                },
                "j_128": {
                    "default": 0
                },
                "k_cld1": {
                    "default": 0
                },
                "j_11": {
                    "default": 0
                },
                "j_114": {
                    "default": 0
                },
                "j_79": {
                    "default": 0
                },
                "j_119": {
                    "default": 0
                },
                "j_105": {
                    "default": 0
                },
                "j_146": {
                    "default": 0
                },
                "j_61": {
                    "default": 0
                },
                "j_18": {
                    "default": 0
                },
                "j_109": {
                    "default": 0
                },
                "j_113": {
                    "default": 0
                },
                "num_density_inv": {
                    "default": 602214076000000000
                },
                "j_131": {
                    "default": 0
                },
                "T": {
                    "default": 298.15
                },
                "j_81": {
                    "default": 0
                },
                "j_10": {
                    "default": 0
                },
                "j_23": {
                    "default": 0
                },
                "j_47": {
                    "default": 0
                },
                "j_137": {
                    "default": 0
                },
                "j_16": {
                    "default": 0
                },
                "j_25": {
                    "default": 0
                },
                "j_100": {
                    "default": 0
                },
                "j_138": {
                    "default": 0
                },
                "j_74": {
                    "default": 0
                },
                "j_72": {
                    "default": 0
                },
                "j_106": {
                    "default": 0
                },
                "j_28": {
                    "default": 0
                },
                "j_29": {
                    "default": 0
                },
                "j_118": {
                    "default": 0
                },
                "j_51": {
                    "default": 0
                },
                "j_104": {
                    "default": 0
                },
                "j_127": {
                    "default": 0
                },
                "j_39": {
                    "default": 0
                },
                "j_135": {
                    "default": 0
                },
                "j_123": {
                    "default": 0
                },
                "j_96": {
                    "default": 0
                },
                "j_122": {
                    "default": 0
                },
                "j_89": {
                    "default": 0
                },
                "j_22": {
                    "default": 0
                },
                "j_44": {
                    "default": 0
                },
                "j_164": {
                    "default": 0
                },
                "j_97": {
                    "default": 0
                },
                "j_31": {
                    "default": 0
                },
                "j_99": {
                    "default": 0
                },
                "j_38": {
                    "default": 0
                },
                "j_20": {
                    "default": 0
                },
                "j_76": {
                    "default": 0
                },
                "j_69": {
                    "default": 0
                },
                "j_83": {
                    "default": 0
                },
                "j_157": {
                    "default": 0
                },
                "j_86": {
                    "default": 0
                },
                "j_75": {
                    "default": 0
                },
                "j_159": {
                    "default": 0
                },
                "j_65": {
                    "default": 0
                },
                "k_mt1": {
                    "default": 0
                },
                "j_139": {
                    "default": 0
                },
                "j_166": {
                    "default": 0
                },
                "j_59": {
                    "default": 0
                },
                "j_32": {
                    "default": 0
                },
                "j_17": {
                    "default": 0
                },
                "j_149": {
                    "default": 0
                },
                "j_154": {
                    "default": 0
                },
                "j_21": {
                    "default": 0
                },
                "j_88": {
                    "default": 0
                },
                "j_153": {
                    "default": 0
                },
                "j_160": {
                    "default": 0
                },
                "j_108": {
                    "default": 0
                },
                "j_1": {
                    "default": 0
                },
                "j_133": {
                    "default": 0
                },
                "k_mt2": {
                    "default": 0
                },
                "num_density": {
                    "default": 44.834554813693856
                },
                "j_64": {
                    "default": 0
                },
                "j_43": {
                    "default": 0
                },
                "j_80": {
                    "default": 0
                },
                "k_mt5": {
                    "default": 0
                },
                "j_107": {
                    "default": 0
                },
                "j_73": {
                    "default": 0
                },
                "j_111": {
                    "default": 0
                },
                "j_117": {
                    "default": 0
                },
                "j_132": {
                    "default": 0
                },
                "j_103": {
                    "default": 0
                },
                "j_45": {
                    "default": 0
                },
                "j_71": {
                    "default": 0
                },
                "j_121": {
                    "default": 0
                },
                "k_mt3": {
                    "default": 0
                },
                "j_158": {
                    "default": 0
                },
                "j_141": {
                    "default": 0
                },
                "j_24": {
                    "default": 0
                },
                "j_34": {
                    "default": 0
                },
                "j_62": {
                    "default": 0
                },
                "j_49": {
                    "default": 0
                },
                "j_140": {
                    "default": 0
                },
                "j_95": {
                    "default": 0
                },
                "k_cld3": {
                    "default": 0
                },
                "j_56": {
                    "default": 0
                },
                "j_78": {
                    "default": 0
                },
                "j_66": {
                    "default": 0
                },
                "j_9": {
                    "default": 0
                },
                "j_110": {
                    "default": 0
                },
                "j_6": {
                    "default": 0
                },
                "j_143": {
                    "default": 0
                },
                "j_165": {
                    "default": 0
                },
                "j_90": {
                    "default": 0
                },
                "j_130": {
                    "default": 0
                },
                "j_101": {
                    "default": 0
                },
                "j_15": {
                    "default": 0
                },
                "j_13": {
                    "default": 0
                },
                "k_cld4": {
                    "default": 0
                },
                "j_68": {
                    "default": 0
                },
                "j_87": {
                    "default": 0
                },
                "j_163": {
                    "default": 0
                },
                "j_161": {
                    "default": 0
                },
                "j_145": {
                    "default": 0
                },
                "k_cld6": {
                    "default": 0
                },
                "j_53": {
                    "default": 0
                },
                "j_150": {
                    "default": 0
                },
                "j_156": {
                    "default": 0
                },
                "j_54": {
                    "default": 0
                },
                "j_37": {
                    "default": 0
                },
                "j_112": {
                    "default": 0
                },
                "j_3": {
                    "default": 0
                },
                "k_mt4": {
                    "default": 0
                },
                "j_8": {
                    "default": 0
                },
                "j_14": {
                    "default": 0
                },
                "j_82": {
                    "default": 0
                },
                "j_12": {
                    "default": 0
                },
                "j_98": {
                    "default": 0
                },
                "j_50": {
                    "default": 0
                },
                "j_116": {
                    "default": 0
                },
                "j_124": {
                    "default": 0
                },
                "j_151": {
                    "default": 0
                },
                "j_126": {
                    "default": 0
                },
                "j_162": {
                    "default": 0
                },
                "j_40": {
                    "default": 0
                },
                "j_136": {
                    "default": 0
                },
                "j_144": {
                    "default": 0
                },
                "k_cld5": {
                    "default": 0
                },
                "j_55": {
                    "default": 0
                },
                "j_2": {
                    "default": 0
                },
                "j_48": {
                    "default": 0
                },
                "j_36": {
                    "default": 0
                },
                "j_125": {
                    "default": 0
                },
                "j_19": {
                    "default": 0
                },
                "j_142": {
                    "default": 0
                },
                "j_84": {
                    "default": 0
                }
            },
            "examples": [
                {
                    "id": "default_run_24h",
                    "description": "24-hour integration of the 819-reaction GEOS-Chem fullchem mechanism from a polluted-urban initial state (T=298 K, num_density=40.9 mol/m^3, NO=10 ppb, NO2=20 ppb, ISOP=2 ppb, O3=70 ppb) with constant noon-rate NO2 photolysis (j_11=0.0149 1/s). Plots O3, NO, NO2 and OH vs time over the full diurnal window. After mdl-5xp routed render_example_plots through earthsci_toolkit.simulation.simulate (the canonical Python ESS runner), LSODA on the cse-compiled rhs handles the 24-h window in ~3-4 min wall on the workspace machine after the per-component compile cache (~80-130 s) is warm; the integrator's adaptive timestep grows large once the HOx/NOx cycle reaches its photostationary balance, so wall cost grows sub-linearly with window length.",
                    "time_span": {
                        "start": 0,
                        "end": 86400
                    },
                    "initial_state": {
                        "type": "per_variable",
                        "values": {
                            "NO": 10,
                            "NO2": 20,
                            "O3": 70,
                            "ISOP": 2,
                            "OH": 4e-06,
                            "HO2": 4e-06,
                            "SO2": 1e-09,
                            "SALAAL": 1e-09,
                            "SALCAL": 1e-09
                        }
                    },
                    "parameters": {
                        "T": 298.0,
                        "num_density": 40.896894217403165,
                        "j_11": 0.0149
                    },
                    "plots": [
                        {
                            "id": "O3_vs_time",
                            "type": "line",
                            "description": "O3 over 24 h of polluted-urban photochemistry under constant-noon photolysis. Initial fast drift settles into a slow net production driven by VOC (ISOP) oxidation; the diurnal-mean drift is the canonical signature of a stand-alone fullchem run with no diurnally-varying j-rates.",
                            "x": {
                                "variable": "t",
                                "label": "time (s)"
                            },
                            "y": {
                                "variable": "O3",
                                "label": "O3 (ppb)"
                            }
                        },
                        {
                            "id": "NO_vs_time",
                            "type": "line",
                            "description": "NO over 24 h \u2014 NO2+hv\u2192NO+O3P competes against NO+O3\u2192NO2 and NO+HO2/RO2 pathways; the NO/NO2 partition equilibrates fast and then drifts with the slower O3 budget.",
                            "x": {
                                "variable": "t",
                                "label": "time (s)"
                            },
                            "y": {
                                "variable": "NO",
                                "label": "NO (ppb)"
                            }
                        },
                        {
                            "id": "NO2_vs_time",
                            "type": "line",
                            "description": "NO2 over 24 h \u2014 depleted by photolysis, replenished by NO+O3 and HO2/RO2+NO; the partner of the NO trace under the fast NOx photostationary cycle.",
                            "x": {
                                "variable": "t",
                                "label": "time (s)"
                            },
                            "y": {
                                "variable": "NO2",
                                "label": "NO2 (ppb)"
                            }
                        },
                        {
                            "id": "OH_vs_time",
                            "type": "line",
                            "description": "OH over 24 h \u2014 sits in the HOx photostationary state set by the j_11/O3/H2O budget on a sub-second timescale, then drifts with the slow O3/HCHO/CO budgets over the diurnal window.",
                            "x": {
                                "variable": "t",
                                "label": "time (s)"
                            },
                            "y": {
                                "variable": "OH",
                                "label": "OH (ppb)"
                            }
                        }
                    ]
                },
                {
                    "id": "jNO2_photolysis_sweep",
                    "description": "NO2-photolysis sensitivity at fixed polluted-urban initial composition (T=298 K, NO=10 ppb, NO2=20 ppb, ISOP=2 ppb, O3=70 ppb). Sweeps j_11 (the GEOS-Chem j-table index for NO2+hv \u2192 NO + O3P, see GasChem.jl/src/geoschem_fullchem.jl:3014) from dark (0 s^-1) through bright noon (~0.02 s^-1) on the same 8-grid superfast uses, integrates each grid point for 1800 s (30 min \u2014 long enough that the slow O3 budget responds to the sweep), then plots the t=1800 s OH and O3 against j_11. The HOx subsystem equilibrates on \u226a 1 s and OH tracks the photostationary value across the sweep; the O3 curve at 30 min captures the j_11 sensitivity of the net O3 photoproduction and is the canonical readout the bead acceptance asks for. Window choice is a wall-time/equilibration trade-off (mdl-1yv): longer windows than 30 min cost a near-proportional amount more wall in solve_ivp without materially changing the curve shape.",
                    "time_span": {
                        "start": 0,
                        "end": 1800
                    },
                    "initial_state": {
                        "type": "per_variable",
                        "values": {
                            "NO": 10,
                            "NO2": 20,
                            "O3": 70,
                            "ISOP": 2,
                            "OH": 4e-06,
                            "HO2": 4e-06,
                            "SO2": 1e-09,
                            "SALAAL": 1e-09,
                            "SALCAL": 1e-09
                        }
                    },
                    "parameters": {
                        "T": 298.0,
                        "num_density": 40.896894217403165
                    },
                    "parameter_sweep": {
                        "type": "cartesian",
                        "dimensions": [
                            {
                                "parameter": "j_11",
                                "values": [
                                    0.0,
                                    0.001,
                                    0.0025,
                                    0.005,
                                    0.0075,
                                    0.01,
                                    0.0149,
                                    0.02
                                ]
                            }
                        ]
                    },
                    "plots": [
                        {
                            "id": "OH_vs_jNO2",
                            "type": "line",
                            "description": "Quasi-steady-state OH at t=1800 s vs NO2 photolysis rate j_11.",
                            "x": {
                                "variable": "j_11",
                                "label": "j_11 (1/s)"
                            },
                            "y": {
                                "variable": "OH",
                                "label": "OH (ppb)"
                            }
                        },
                        {
                            "id": "O3_vs_jNO2",
                            "type": "line",
                            "description": "O3 at t=1800 s vs NO2 photolysis rate j_11 — quasi-steady-state ozone response across the dark-to-noon photolysis range.",
                            "x": {
                                "variable": "j_11",
                                "label": "j_11 (1/s)"
                            },
                            "y": {
                                "variable": "O3",
                                "label": "O3 (ppb)"
                            }
                        }
                    ]
                },
                {
                    "id": "temperature_sweep",
                    "description": "Tropospheric-temperature sensitivity at fixed polluted-urban composition and noon photolysis (j_11=0.0149 1/s). Sweeps T across the same 9-grid superfast uses (240 K cold upper-troposphere \u2192 320 K warm boundary layer) and integrates each grid point for 1800 s (30 min \u2014 long enough for the slow O3 budget to respond), then plots the t=1800 s OH and O3 against T. The bimolecular Arrhenius rates and termolecular falloff rates that dominate the HOx, NOx and O3 budgets all carry strong T dependence; the 30-min window lets the net effect on tropospheric O3 emerge in a single curve. Note: num_density is held at 40.9 mol/m\u00b3 (the polluted_urban value) rather than scaling with T at fixed P, so the sweep isolates the rate-coefficient T dependence from the P/T density dependence.",
                    "time_span": {
                        "start": 0,
                        "end": 1800
                    },
                    "initial_state": {
                        "type": "per_variable",
                        "values": {
                            "NO": 10,
                            "NO2": 20,
                            "O3": 70,
                            "ISOP": 2,
                            "OH": 4e-06,
                            "HO2": 4e-06,
                            "SO2": 1e-09,
                            "SALAAL": 1e-09,
                            "SALCAL": 1e-09
                        }
                    },
                    "parameters": {
                        "j_11": 0.0149,
                        "num_density": 40.896894217403165
                    },
                    "parameter_sweep": {
                        "type": "cartesian",
                        "dimensions": [
                            {
                                "parameter": "T",
                                "values": [
                                    240,
                                    250,
                                    260,
                                    270,
                                    280,
                                    290,
                                    300,
                                    310,
                                    320
                                ]
                            }
                        ]
                    },
                    "plots": [
                        {
                            "id": "OH_vs_T",
                            "type": "line",
                            "description": "Quasi-steady-state OH at t=1800 s vs temperature T.",
                            "x": {
                                "variable": "T",
                                "label": "Temperature (K)"
                            },
                            "y": {
                                "variable": "OH",
                                "label": "OH (ppb)"
                            }
                        },
                        {
                            "id": "O3_vs_T",
                            "type": "line",
                            "description": "O3 at t=1800 s vs temperature T — quasi-steady-state ozone response across the cold-troposphere-to-warm-boundary-layer range.",
                            "x": {
                                "variable": "T",
                                "label": "Temperature (K)"
                            },
                            "y": {
                                "variable": "O3",
                                "label": "O3 (ppb)"
                            }
                        }
                    ]
                }
            ],
            "reference": {
                "notes": "source_ref: GasChem.jl src/geoschem_fullchem.jl\nGEOS-Chem fullchem gas-phase mechanism (~819 reactions, ~272 species). Migrated from GasChem.jl GEOSChemGasPhase via mtk2esm with sub-system rate-law inlining.\n\nPost-process workarounds applied (mdl-ode):\n  - 64 max(expr, 0.0) rate clamps were rewritten to (a + abs(a))/2 by scripts/migrations/rewrite_max_in_esm.py because EarthSciSerializationCatalystExt._esm_to_symbolic does not accept the max op. File a follow-on bead in EarthSciSerialization to add max/min support and drop this stop-gap (same lifecycle as scripts/migrations/post_process_geoschem_fullchem.py).\n\nInline tests (mdl-ode): 3 pinned reference states (clean troposphere / polluted urban / upper troposphere) with expected species values from upstream GasChem.GEOSChemGasPhase via mtkcompile + Rosenbrock23. Generator: scripts/migrations/reference_values_geoschem_fullchem.jl. Cross-implementation tolerance rel=1e-3 (loose enough to absorb solver-tolerance and Catalyst path divergence between rxn_sys=false and the migrated flat ReactionSystem; tight enough to catch translation bugs). Reference timing on the workspace machine: GasChem build (rxn_sys=false, ODE-model path) = 1138 s, mtkcompile = 65.6 s, peak RSS during build ~8.2 GiB \u2014 inside the bead's combined 60-min / 32-GiB budget. The migration kept num_density (mol/m\u00b3) but not P; tests override num_density = P / (R_GAS \u00b7 T) per state to maintain (T, P) consistency with the bead-pinned states."
            },
            "reactions": [
                {
                    "substrates": [
                        {
                            "stoichiometry": 1,
                            "species": "SALAAL"
                        },
                        {
                            "stoichiometry": 1,
                            "species": "O3"
                        },
                        {
                            "stoichiometry": 1,
                            "species": "SO2"
                        }
                    ],
                    "id": "R1",
                    "rate": {
                        "args": [
                            "k_mt1",
                            "SALAAL"
                        ],
                        "op": "/"
                    },
                    "products": [
                        {
                            "stoichiometry": 1,
                            "species": "SO4"
                        }
                    ]
                },
                {
                    "substrates": [
                        {
                            "stoichiometry": 1,
                            "species": "SALAAL"
                        },
                        {
                            "stoichiometry": 1,
                            "species": "HCl"
                        }
                    ],
                    "id": "R2",
                    "rate": "k_mt2",
                    "products": [
                        {
                            "stoichiometry": 1,
                            "species": "SALACL"
                        }
                    ]
                },
                {
                    "substrates": [
                        {
                            "stoichiometry": 1,
                            "species": "SALAAL"
                        },
                        {
                            "stoichiometry": 1,
                            "species": "HNO3"
                        }
                    ],
                    "id": "R3",
                    "rate": "k_mt3",
                    "products": [
                        {
                            "stoichiometry": 1,
                            "species": "NIT"
                        }
                    ]
                },
                {
                    "substrates": [
                        {
                            "stoichiometry": 1,
                            "species": "O3"
                        },
                        {
                            "stoichiometry": 1,
                            "species": "SO2"
                        },
                        {
                            "stoichiometry": 1,
                            "species": "SALCAL"
                        }
                    ],
                    "id": "R4",
                    "rate": {
                        "args": [
                            "k_mt4",
                            "SALCAL"
                        ],
                        "op": "/"
                    },
                    "products": [
                        {
                            "stoichiometry": 1,
                            "species": "SO4s"
                        }
                    ]
                },
                {
                    "substrates": [
                        {
                            "stoichiometry": 1,
                            "species": "HCl"
                        },
                        {
                            "stoichiometry": 1,
                            "species": "SALCAL"
                        }
                    ],
                    "id": "R5",
                    "rate": "k_mt5",
                    "products": [
                        {
                            "stoichiometry": 1,
                            "species": "SALCCL"
                        }
                    ]
                },
                {
                    "substrates": [
                        {
                            "stoichiometry": 1,
                            "species": "HNO3"
                        },
                        {
                            "stoichiometry": 1,
                            "species": "SALCAL"
                        }
                    ],
                    "id": "R6",
                    "rate": "k_mt6",
                    "products": [
                        {
                            "stoichiometry": 1,
                            "species": "NITs"
                        }
                    ]
                },
                {
                    "substrates": [
                        {
                            "stoichiometry": 1,
                            "species": "SO2"
                        },
                        {
                            "stoichiometry": 1,
                            "species": "H2O2"
                        }
                    ],
                    "id": "R7",
                    "rate": "k_cld1",
                    "products": [
                        {
                            "stoichiometry": 1,
                            "species": "SO4"
                        }
                    ]
                },
                {
                    "substrates": [
                        {
                            "stoichiometry": 1,
                            "species": "O3"
                        },
                        {
                            "stoichiometry": 1,
                            "species": "SO2"
                        }
                    ],
                    "id": "R8",
                    "rate": "k_cld2",
                    "products": [
                        {
                            "stoichiometry": 1,
                            "species": "SO4"
                        }
                    ]
                },
                {
                    "substrates": [
                        {
                            "stoichiometry": 1,
                            "species": "SO2"
                        }
                    ],
                    "id": "R9",
                    "rate": "k_cld3",
                    "products": [
                        {
                            "stoichiometry": 1,
                            "species": "SO4"
                        }
                    ]
                },
                {
                    "substrates": [
                        {
                            "stoichiometry": 1,
                            "species": "SO2"
                        },
                        {
                            "stoichiometry": 1,
                            "species": "CH2O"
                        }
                    ],
                    "id": "R10",
                    "rate": "k_cld4",
                    "products": [
                        {
                            "stoichiometry": 1,
                            "species": "HMS"
                        }
                    ]
                },
                {
                    "substrates": [
                        {
                            "stoichiometry": 1,
                            "species": "HMS"
                        }
                    ],
                    "id": "R11",
                    "rate": "k_cld5",
                    "products": [
                        {
                            "stoichiometry": 1,
                            "species": "SO2"
                        },
                        {
                            "stoichiometry": 1,
                            "species": "CH2O"
                        }
                    ]
                },
                {
                    "substrates": [
                        {
                            "stoichiometry": 1,
                            "species": "SO2"
                        },
                        {
                            "stoichiometry": 1,
                            "species": "HMS"
                        },
                        {
                            "stoichiometry": 1,
                            "species": "OH"
                        }
                    ],
                    "id": "R12",
                    "rate": {
                        "args": [
                            "k_cld6",
                            "SO2"
                        ],
                        "op": "/"
                    },
                    "products": [
                        {
                            "stoichiometry": 2,
                            "species": "SO4"
                        },
                        {
                            "stoichiometry": 1,
                            "species": "CH2O"
                        }
                    ]
                },
                {
                    "substrates": [
                        {
                            "stoichiometry": 1,
                            "species": "NO"
                        },
                        {
                            "stoichiometry": 1,
                            "species": "O3"
                        }
                    ],
                    "id": "R13",
                    "rate": {
                        "op": "apply_expression_template",
                        "name": "arrhenius_M",
                        "bindings": {
                            "A": 0.0018066422280000002,
                            "B": -1500.0
                        },
                        "args": []
                    },
                    "products": [
                        {
                            "stoichiometry": 1,
                            "species": "NO2"
                        },
                        {
                            "stoichiometry": 1,
                            "species": "O2"
                        }
                    ]
                },
                {
                    "substrates": [
                        {
                            "stoichiometry": 1,
                            "species": "O3"
                        },
                        {
                            "stoichiometry": 1,
                            "species": "OH"
                        }
                    ],
                    "id": "R14",
                    "rate": {
                        "op": "apply_expression_template",
                        "name": "arrhenius_M",
                        "bindings": {
                            "A": 0.0010237639292000002,
                            "B": -940.0
                        },
                        "args": []
                    },
                    "products": [
                        {
                            "stoichiometry": 1,
                            "species": "HO2"
                        },
                        {
                            "stoichiometry": 1,
                            "species": "O2"
                        }
                    ]
                },
                {
                    "substrates": [
                        {
                            "stoichiometry": 1,
                            "species": "O3"
                        },
                        {
                            "stoichiometry": 1,
                            "species": "HO2"
                        }
                    ],
                    "id": "R15",
                    "rate": {
                        "op": "apply_expression_template",
                        "name": "arrhenius_M",
                        "bindings": {
                            "A": 6.022140760000001e-06,
                            "B": -490.0
                        },
                        "args": []
                    },
                    "products": [
                        {
                            "stoichiometry": 1,
                            "species": "OH"
                        },
                        {
                            "stoichiometry": 2,
                            "species": "O2"
                        }
                    ]
                },
                {
                    "substrates": [
                        {
                            "stoichiometry": 1,
                            "species": "O3"
                        },
                        {
                            "stoichiometry": 1,
                            "species": "NO2"
                        }
                    ],
                    "id": "R16",
                    "rate": {
                        "op": "apply_expression_template",
                        "name": "arrhenius_M",
                        "bindings": {
                            "A": 7.226568912e-05,
                            "B": -2450.0
                        },
                        "args": []
                    },
                    "products": [
                        {
                            "stoichiometry": 1,
                            "species": "NO3"
                        },
                        {
                            "stoichiometry": 1,
                            "species": "O2"
                        }
                    ]
                },
                {
                    "substrates": [
                        {
                            "stoichiometry": 1,
                            "species": "O3"
                        },
                        {
                            "stoichiometry": 1,
                            "species": "MO2"
                        }
                    ],
                    "id": "R17",
                    "rate": {
                        "op": "apply_expression_template",
                        "name": "arrhenius_M",
                        "bindings": {
                            "A": 1.7464208204e-07,
                            "B": -1000.0
                        },
                        "args": []
                    },
                    "products": [
                        {
                            "stoichiometry": 1,
                            "species": "HO2"
                        },
                        {
                            "stoichiometry": 1,
                            "species": "CH2O"
                        },
                        {
                            "stoichiometry": 1,
                            "species": "O2"
                        }
                    ]
                },
                {
                    "substrates": [
                        {
                            "stoichiometry": 2,
                            "species": "OH"
                        }
                    ],
                    "id": "R18",
                    "rate": {
                        "op": "apply_expression_template",
                        "name": "scaled_M",
                        "bindings": {
                            "A": 0.0010839853368
                        },
                        "args": []
                    },
                    "products": [
                        {
                            "stoichiometry": 1,
                            "species": "H2O"
                        },
                        {
                            "stoichiometry": 1,
                            "species": "O"
                        }
                    ]
                },
                {
                    "substrates": [
                        {
                            "stoichiometry": 2,
                            "species": "OH"
                        }
                    ],
                    "id": "R19",
                    "rate": {
                        "args": [
                            {
                                "args": [
                                    0.07507099121983447,
                                    {
                                        "args": [
                                            0.6,
                                            {
                                                "args": [
                                                    1.0,
                                                    {
                                                        "args": [
                                                            1.0,
                                                            {
                                                                "args": [
                                                                    {
                                                                        "args": [
                                                                            {
                                                                                "args": [
                                                                                    {
                                                                                        "args": [
                                                                                            1.24658313732e-16,
                                                                                            "num_density"
                                                                                        ],
                                                                                        "op": "*"
                                                                                    },
                                                                                    {
                                                                                        "args": [
                                                                                            2.6e-17,
                                                                                            "T"
                                                                                        ],
                                                                                        "op": "*"
                                                                                    }
                                                                                ],
                                                                                "op": "/"
                                                                            }
                                                                        ],
                                                                        "op": "log10"
                                                                    },
                                                                    2
                                                                ],
                                                                "op": "^"
                                                            }
                                                        ],
                                                        "op": "+"
                                                    }
                                                ],
                                                "op": "/"
                                            }
                                        ],
                                        "op": "^"
                                    },
                                    {
                                        "args": [
                                            0.0
                                        ],
                                        "op": "exp"
                                    },
                                    {
                                        "args": [
                                            "num_density",
                                            2
                                        ],
                                        "op": "^"
                                    }
                                ],
                                "op": "*"
                            },
                            {
                                "args": [
                                    "T",
                                    {
                                        "args": [
                                            1.0,
                                            {
                                                "args": [
                                                    {
                                                        "args": [
                                                            1.24658313732e-16,
                                                            "num_density"
                                                        ],
                                                        "op": "*"
                                                    },
                                                    {
                                                        "args": [
                                                            2.6e-17,
                                                            "T"
                                                        ],
                                                        "op": "*"
                                                    }
                                                ],
                                                "op": "/"
                                            }
                                        ],
                                        "op": "+"
                                    }
                                ],
                                "op": "*"
                            }
                        ],
                        "op": "/"
                    },
                    "products": [
                        {
                            "stoichiometry": 1,
                            "species": "H2O2"
                        }
                    ]
                },
                {
                    "substrates": [
                        {
                            "stoichiometry": 1,
                            "species": "HO2"
                        },
                        {
                            "stoichiometry": 1,
                            "species": "OH"
                        }
                    ],
                    "id": "R20",
                    "rate": {
                        "op": "apply_expression_template",
                        "name": "arrhenius_M",
                        "bindings": {
                            "A": 0.028906275648000003,
                            "B": 250.0
                        },
                        "args": []
                    },
                    "products": [
                        {
                            "stoichiometry": 1,
                            "species": "H2O"
                        },
                        {
                            "stoichiometry": 1,
                            "species": "O2"
                        }
                    ]
                },
                {
                    "substrates": [
                        {
                            "stoichiometry": 1,
                            "species": "H2O2"
                        },
                        {
                            "stoichiometry": 1,
                            "species": "OH"
                        }
                    ],
                    "id": "R21",
                    "rate": {
                        "op": "apply_expression_template",
                        "name": "scaled_M",
                        "bindings": {
                            "A": 0.0010839853368
                        },
                        "args": []
                    },
                    "products": [
                        {
                            "stoichiometry": 1,
                            "species": "H2O"
                        },
                        {
                            "stoichiometry": 1,
                            "species": "HO2"
                        }
                    ]
                },
                {
                    "substrates": [
                        {
                            "stoichiometry": 1,
                            "species": "NO"
                        },
                        {
                            "stoichiometry": 1,
                            "species": "HO2"
                        }
                    ],
                    "id": "R22",
                    "rate": {
                        "op": "apply_expression_template",
                        "name": "arrhenius_M",
                        "bindings": {
                            "A": 0.0019873064508,
                            "B": 270.0
                        },
                        "args": []
                    },
                    "products": [
                        {
                            "stoichiometry": 1,
                            "species": "NO2"
                        },
                        {
                            "stoichiometry": 1,
                            "species": "OH"
                        }
                    ]
                },
                {
                    "substrates": [
                        {
                            "stoichiometry": 2,
                            "species": "HO2"
                        }
                    ],
                    "id": "R23",
                    "rate": {
                        "args": [
                            602214076.0,
                            {
                                "args": [
                                    {
                                        "args": [
                                            1.2646495595999998e-15,
                                            {
                                                "args": [
                                                    {
                                                        "args": [
                                                            920.0,
                                                            "T"
                                                        ],
                                                        "op": "/"
                                                    }
                                                ],
                                                "op": "exp"
                                            },
                                            "num_density"
                                        ],
                                        "op": "*"
                                    },
                                    {
                                        "args": [
                                            3e-13,
                                            {
                                                "args": [
                                                    {
                                                        "args": [
                                                            460.0,
                                                            "T"
                                                        ],
                                                        "op": "/"
                                                    }
                                                ],
                                                "op": "exp"
                                            }
                                        ],
                                        "op": "*"
                                    }
                                ],
                                "op": "+"
                            },
                            {
                                "args": [
                                    1.0,
                                    {
                                        "args": [
                                            8.430997064e-13,
                                            "H2O",
                                            "num_density",
                                            {
                                                "args": [
                                                    {
                                                        "args": [
                                                            2200.0,
                                                            "T"
                                                        ],
                                                        "op": "/"
                                                    }
                                                ],
                                                "op": "exp"
                                            }
                                        ],
                                        "op": "*"
                                    }
                                ],
                                "op": "+"
                            },
                            "num_density"
                        ],
                        "op": "*"
                    },
                    "products": [
                        {
                            "stoichiometry": 1,
                            "species": "H2O2"
                        },
                        {
                            "stoichiometry": 1,
                            "species": "O2"
                        }
                    ]
                },
                {
                    "substrates": [
                        {
                            "stoichiometry": 1,
                            "species": "CO"
                        },
                        {
                            "stoichiometry": 1,
                            "species": "OH"
                        }
                    ],
                    "id": "R24",
                    "rate": {
                        "args": [
                            {
                                "args": [
                                    {
                                        "args": [
                                            0.0006419113741985848,
                                            {
                                                "args": [
                                                    0
                                                ],
                                                "op": "exp"
                                            },
                                            {
                                                "args": [
                                                    "num_density",
                                                    2
                                                ],
                                                "op": "^"
                                            },
                                            {
                                                "args": [
                                                    0.6,
                                                    {
                                                        "args": [
                                                            1.0,
                                                            {
[...]
                                                                                    "num_density"
                                                                                ],
                                                                                "op": "*"
                                                                            },
                                                                            {
                                                                                "args": [
                                                                                    1.0,
                                                                                    {
                                                                                        "args": [
                                                                                            {
                                                                                                "args": [
                                                                                                    "Fc",
                                                                                                    "num_density"
                                                                                                ],
                                                                                                "op": "*"
                                                                                            },
                                                                                            {
                                                                                                "args": [
                                                                                                    0.43,
                                                                                                    {
                                                                                                        "args": [
                                                                                                            {
                                                                                                                "args": [
                                                                                                                    298.0,
                                                                                                                    "T"
                                                                                                                ],
                                                                                                                "op": "/"
                                                                                                            },
                                                                                                            8
                                                                                                        ],
                                                                                                        "op": "^"
                                                                                                    }
                                                                                                ],
                                                                                                "op": "*"
                                                                                            }
                                                                                        ],
                                                                                        "op": "/"
                                                                                    }
                                                                                ],
                                                                                "op": "+"
                                                                            }
                                                                        ],
                                                                        "op": "/"
                                                                    }
                                                                ],
                                                                "op": "+"
                                                            },
                                                            {
                                                                "args": [
                                                                    1.0,
                                                                    {
                                                                        "args": [
                                                                            {
                                                                                "args": [
                                                                                    "Fc",
                                                                                    "num_density"
                                                                                ],
                                                                                "op": "*"
                                                                            },
                                                                            {
                                                                                "args": [
                                                                                    0.43,
                                                                                    {
                                                                                        "args": [
                                                                                            {
                                                                                                "args": [
                                                                                                    298.0,
                                                                                                    "T"
                                                                                                ],
                                                                                                "op": "/"
                                                                                            },
                                                                                            8
                                                                                        ],
                                                                                        "op": "^"
                                                                                    }
                                                                                ],
                                                                                "op": "*"
                                                                            }
                                                                        ],
                                                                        "op": "/"
                                                                    }
                                                                ],
                                                                "op": "+"
                                                            }
                                                        ],
                                                        "op": "*"
                                                    }
                                                ],
                                                "op": "/"
                                            }
                                        ]
                                    }
                                ]
                            },
                            2.0
                        ]
                    }
                },
                "troe_M2_arr": {
                    "params": [
                        "A",
                        "n_inf",
                        "k0_300",
                        "n_0"
                    ],
                    "body": {
                        "args": [
                            {
                                "args": [
                                    "A",
                                    {
                                        "args": [
                                            0.0
                                        ],
                                        "op": "exp"
                                    },
                                    {
                                        "args": [
                                            {
                                                "args": [
                                                    300,
                                                    "T"
                                                ],
                                                "op": "/"
                                            },
                                            "n_inf"
                                        ],
                                        "op": "^"
                                    },
                                    {
                                        "args": [
                                            "num_density",
                                            2
                                        ],
                                        "op": "^"
                                    },
                                    {
                                        "args": [
                                            0.6,
                                            {
                                                "args": [
                                                    1.0,
                                                    {
                                                        "args": [
                                                            1.0,
                                                            {
                                                                "args": [
                                                                    {
                                                                        "args": [
                                                                            {
                                                                                "args": [
                                                                                    "k0_300",
                                                                                    {
                                                                                        "args": [
                                                                                            {
                                                                                                "args": [
                                                                                                    300,
                                                                                                    "T"
                                                                                                ],
                                                                                                "op": "/"
                                                                                            },
                                                                                            "n_0"
                                                                                        ],
                                                                                        "op": "^"
                                                                                    },
                                                                                    "num_density"
                                                                                ],
                                                                                "op": "*"
                                                                            }
                                                                        ],
                                                                        "op": "log10"
                                                                    },
                                                                    2
                                                                ],
                                                                "op": "^"
                                                            }
                                                        ],
                                                        "op": "+"
                                                    }
                                                ],
                                                "op": "/"
                                            }
                                        ],
                                        "op": "^"
                                    }
                                ],
                                "op": "*"
                            },
                            {
                                "args": [
                                    1.0,
                                    {
                                        "args": [
                                            "k0_300",
                                            {
                                                "args": [
                                                    {
                                                        "args": [
                                                            300,
                                                            "T"
                                                        ],
                                                        "op": "/"
                                                    },
                                                    "n_0"
                                                ],
                                                "op": "^"
                                            },
                                            "num_density"
                                        ],
                                        "op": "*"
                                    }
                                ],
                                "op": "+"
                            }
                        ],
                        "op": "/"
                    }
                },
                "arrhenius_clamp_lin": {
                    "params": [
                        "B",
                        "C"
                    ],
                    "body": {
                        "op": "/",
                        "args": [
                            {
                                "op": "+",
                                "args": [
                                    {
                                        "args": [
                                            0.000127669384112,
                                            {
                                                "args": [
                                                    "B",
                                                    {
                                                        "args": [
                                                            "C",
                                                            "T"
                                                        ],
                                                        "op": "*"
                                                    }
                                                ],
                                                "op": "+"
                                            },
                                            {
                                                "args": [
                                                    {
                                                        "args": [
                                                            1300.0,
                                                            "T"
                                                        ],
                                                        "op": "/"
                                                    }
                                                ],
                                                "op": "exp"
                                            },
                                            "num_density"
                                        ],
                                        "op": "*"
                                    },
                                    {
                                        "op": "abs",
                                        "args": [
                                            {
                                                "args": [
                                                    0.000127669384112,
                                                    {
                                                        "args": [
                                                            "B",
                                                            {
                                                                "args": [
                                                                    "C",
                                                                    "T"
                                                                ],
                                                                "op": "*"
                                                            }
                                                        ],
                                                        "op": "+"
                                                    },
                                                    {
                                                        "args": [
                                                            {
                                                                "args": [
                                                                    1300.0,
                                                                    "T"
                                                                ],
                                                                "op": "/"
                                                            }
                                                        ],
                                                        "op": "exp"
                                                    },
                                                    "num_density"
                                                ],
                                                "op": "*"
                                            }
                                        ]
                                    }
                                ]
                            },
                            2.0
                        ]
                    }
                }
            }
        }
    },
    "esm": "0.4.0",
    "metadata": {
        "name": "GEOSChemGasPhase",
        "description": "GEOS-Chem fullchem gas-phase mechanism (~819 reactions, ~272 species). Migrated from GasChem.jl GEOSChemGasPhase via mtk2esm with sub-system rate-law inlining.",
        "authors": [
            "EarthSciML authors and contributors"
        ]
    }
}
