{
  "esm": "0.4.0",
  "metadata": {
    "name": "calc_direct_fluxes",
    "description": "Direct solar beam actinic fluxes for all 18 Fast-JX wavelength bands as a function of cosine solar zenith angle (CSZA) and pressure (P). Migrated from GasChem.jl src/Fast-JX.jl:1082 (calc_direct_fluxes, @register_symbolic). Implements Beer-Lambert direct-beam attenuation through the GEOS-Chem 73-level hybrid vertical grid with Rayleigh + O\u2082 + O\u2083 optical depths and spherical geometry air mass factors. The gt-p3ep gap is resolved by precomputing over a 61-CSZA \u00d7 73-P grid and expressing each of the 18 output fluxes as an interp.bilinear lookup.",
    "tags": [
      "gaschem",
      "fast-jx",
      "photolysis",
      "registered_function",
      "actinic_flux",
      "direct_beam",
      "beer_lambert",
      "interp-bilinear"
    ],
    "created": "2026-05-22T00:00:00Z",
    "authors": [
      "GasChem.jl contributors",
      "EarthSciModels migration (esm-2u1x)"
    ],
    "references": [
      {
        "citation": "Neu, J.L., Prather, M.J., and Penner, J.E. (2007), Global atmospheric chemistry: Integrating over fractional cloud cover, J. Geophys. Res., 112, D11306, doi:10.1029/2006JD008007. \u2014 Source for the Fast-JX scheme."
      },
      {
        "citation": "Source: GasChem.jl/src/Fast-JX.jl (commit 8c12c048482b515fb8eb2110bf8ab4b4f4e71309). calc_direct_fluxes(CSZA, P) returns a vector of 18 direct-beam actinic fluxes. Depends on direct_solar_beam_box, OD_total (74\u00d718 optical depth matrix), z_profile (74-element height vector), top_flux (18-element TOA flux vector)."
      }
    ]
  },
  "models": {
    "calc_direct_fluxes": {
      "reference": {
        "notes": "source_ref: GasChem.jl@8c12c048482b515fb8eb2110bf8ab4b4f4e71309:src/Fast-JX.jl:1082\n\nUpstream definition:\n  function calc_direct_fluxes(CSZA, P)\n      direct_flux_factor = direct_solar_beam_box(OD_total, CSZA, z_profile, P)\n      fluxes = top_flux .* direct_flux_factor\n      return fluxes\n  end\n  @register_symbolic calc_direct_fluxes(CSZA, P)\n\ndirect_solar_beam_box uses:\n  - find_closest_pressure_index: snaps P to nearest of 73 P_levels (piecewise-constant in P)\n  - sphere2J: spherical-geometry air mass factors for the slanted solar beam path\n  - Beer-Lambert: exp(-\u03c4) attenuation with Rayleigh + O\u2082 + O\u2083 optical depths (OD_total)\n  - top_flux: 18-band TOA solar flux vector\n\nGrid axes:\n  CSZA axis (61 pts): cosSZA_vals = [-0.2, -0.18, ..., 1.0] (step 0.02)\n  P axis (73 pts): P_levels reversed to ascending order, from ~1 Pa (TOA) to 101325 Pa (surface)\n  P_levels = Ap + Bp \u00d7 101325 Pa (GEOS-Chem 72-layer hybrid sigma-pressure coordinate)\n\nOutput variables F_{wl} correspond to GasChem WL array wavelengths [nm]:\n  187, 191, 193, 196, 202, 208, 211, 214, 261, 267, 277, 295, 303, 310, 316, 333, 380, 574\n\nAccuracy note: the bilinear lookup is exact at grid intersections. Off-grid CSZA queries\nmay incur larger errors for bands 10-12 (261-277 nm) near the surface, where the Beer-Lambert\nattenuation has a steep transition in CSZA (transition from full absorption to partial transmission).\nCSZA step 0.02 is sufficient for bands 1-9 (always 0 at surface) and 13-18 (slowly varying).\n\nFlat extrapolation at all edges:\n  CSZA < -0.2 \u2192 CSZA = -0.2 (deep night, all fluxes = 0)\n  CSZA > 1.0 \u2192 CSZA = 1.0 (overhead sun)\n  P < ~1 Pa \u2192 top-of-atmosphere (\u2248 top_flux \u00d7 1)\n  P > 101325 Pa \u2192 surface values (highest attenuation)"
      },
      "tolerance": {
        "rel": 1e-09,
        "abs": 1e-30
      },
      "variables": {
        "CSZA": {
          "type": "parameter",
          "units": "1",
          "default": 0.5,
          "description": "Cosine of the solar zenith angle (dimensionless, clipped to [-0.2, 1.0] with flat extrapolation)."
        },
        "P": {
          "type": "parameter",
          "units": "Pa",
          "default": 101325.0,
          "description": "Air pressure (Pa). Mapped to the nearest level in the 73-level GEOS-Chem hybrid vertical grid (P_levels)."
        },
        "F_187": {
          "type": "observed",
          "units": "1/s",
          "description": "Direct solar beam actinic flux at Fast-JX wavelength band 1 (187 nm) (s\u207b\u00b9). = top_flux[1] \u00d7 Beer-Lambert attenuation factor. Bilinearly interpolated from precomputed 61-CSZA \u00d7 73-P table.",
          "expression": {
            "op": "fn",
            "name": "interp.bilinear",
            "args": [
              {
                "op": "const",
                "args": [],
                "value": [
                  [
                    0.0,
                    0.0,
                    0.0,
                    0.0,
                    0.0,
                    0.0,
                    0.0,
                    0.0,
                    0.0,
                    0.0,
                    0.0,
                    0.0,
                    0.0,
                    0.0,
                    0.0,
                    0.0,
                    0.0,
                    0.0,
                    0.0,
                    0.0,
                    0.0,
                    0.0,
                    0.0,
                    0.0,
                    0.0,
                    0.0,
                    0.0,
                    0.0,
                    0.0,
                    0.0,
                    0.0,
                    0.0,
                    0.0,
                    0.0,
                    0.0,
                    0.0,
                    0.0,
                    0.0,
                    0.0,
                    0.0,
                    0.0,
                    0.0,
                    0.0,
                    0.0,
                    0.0,
                    0.0,
                    0.0,
                    0.0,
                    0.0,
                    0.0,
                    0.0,
                    0.0,
                    0.0,
                    0.0,
                    0.0,
                    0.0,
                    0.0,
                    0.0,
                    0.0,
                    0.0,
                    0.0,
                    0.0,
                    0.0,
                    0.0,
                    0.0,
                    0.0,
                    0.0,
                    0.0,
                    0.0,
                    0.0,
                    0.0,
                    0.0,
                    0.0
                  ],
                  [
                    0.0,
                    0.0,
                    0.0,
                    0.0,
                    0.0,
                    0.0,
                    0.0,
                    0.0,
                    0.0,
                    0.0,
                    0.0,
                    0.0,
                    0.0,
                    0.0,
                    0.0,
                    0.0,
                    0.0,
                    0.0,
                    0.0,
                    0.0,
                    0.0,
                    0.0,
                    0.0,
                    0.0,
                    0.0,
                    0.0,
                    0.0,
                    0.0,
                    0.0,
                    0.0,
                    0.0,
                    0.0,
                    0.0,
                    0.0,
                    0.0,
                    0.0,
                    0.0,
                    0.0,
                    0.0,
                    0.0,
                    0.0,
                    0.0,
                    0.0,
                    0.0,
                    0.0,
                    0.0,
                    0.0,
                    0.0,
                    0.0,
                    0.0,
                    0.0,
                    0.0,
                    0.0,
                    0.0,
                    0.0,
                    0.0,
                    0.0,
                    0.0,
                    0.0,
                    0.0,
                    0.0,
                    0.0,
                    0.0,
                    0.0,
                    0.0,
                    0.0,
                    0.0,
                    0.0,
                    0.0,
                    0.0,
                    0.0,
                    0.0,
                    0.0
                  ],
                  [
                    0.0,
                    0.0,
                    0.0,
                    0.0,
                    0.0,
                    0.0,
                    0.0,
                    0.0,
                    0.0,
                    0.0,
                    0.0,
                    0.0,
                    0.0,
                    0.0,
                    0.0,
                    0.0,
                    0.0,
                    0.0,
                    0.0,
                    0.0,
                    0.0,
                    0.0,
                    0.0,
                    0.0,
                    0.0,
                    0.0,
                    0.0,
                    0.0,
                    0.0,
                    0.0,
                    0.0,
                    0.0,
                    0.0,
                    0.0,
                    0.0,
                    0.0,
                    0.0,
                    0.0,
                    0.0,
                    0.0,
                    0.0,
                    0.0,
                    0.0,
                    0.0,
                    0.0,
                    0.0,
                    0.0,
                    0.0,
                    0.0,
                    0.0,
                    0.0,
                    0.0,
                    0.0,
                    0.0,
                    0.0,
                    0.0,
                    0.0,
                    0.0,
                    0.0,
                    0.0,
                    0.0,
                    0.0,
                    0.0,
                    0.0,
                    0.0,
                    0.0,
                    0.0,
                    0.0,
                    0.0,
                    0.0,
                    0.0,
                    0.0,
                    0.0
                  ],
                  [
                    0.0,
                    0.0,
                    0.0,
                    0.0,
                    0.0,
                    0.0,
                    0.0,
                    0.0,
                    0.0,
                    0.0,
                    0.0,
                    0.0,
                    0.0,
                    0.0,
                    0.0,
                    0.0,
                    0.0,
                    0.0,
                    0.0,
                    0.0,
                    0.0,
                    0.0,
                    0.0,
                    0.0,
                    0.0,
                    0.0,
                    0.0,
                    0.0,
                    0.0,
                    0.0,
                    0.0,
                    0.0,
                    0.0,
                    0.0,
                    0.0,
                    0.0,
                    0.0,
                    0.0,
                    0.0,
                    0.0,
                    0.0,
                    0.0,
                    0.0,
                    0.0,
                    0.0,
                    0.0,
                    0.0,
                    0.0,
                    0.0,
                    0.0,
                    0.0,
                    0.0,
                    0.0,
                    0.0,
                    0.0,
                    0.0,
                    0.0,
                    0.0,
                    0.0,
                    0.0,
                    0.0,
                    0.0,
                    0.0,
                    0.0,
                    0.0,
                    0.0,
                    0.0,
                    0.0,
                    0.0,
                    0.0,
                    0.0,
                    0.0,
                    0.0
                  ],
                  [
                    0.0,
                    0.0,
                    0.0,
                    0.0,
                    0.0,
                    0.0,
                    0.0,
                    0.0,
                    0.0,
                    0.0,
                    0.0,
                    0.0,
                    0.0,
                    0.0,
                    0.0,
                    0.0,
                    0.0,
                    0.0,
                    0.0,
                    0.0,
                    0.0,
                    0.0,
                    0.0,
                    0.0,
                    0.0,
                    0.0,
                    0.0,
                    0.0,
                    0.0,
                    0.0,
                    0.0,
                    0.0,
                    0.0,
                    0.0,
                    0.0,
                    0.0,
                    0.0,
                    0.0,
                    0.0,
                    0.0,
                    0.0,
                    0.0,
                    0.0,
                    0.0,
                    0.0,
                    0.0,
                    0.0,
                    0.0,
                    0.0,
                    0.0,
                    0.0,
                    0.0,
                    0.0,
                    0.0,
                    0.0,
                    0.0,
                    0.0,
                    0.0,
                    0.0,
                    0.0,
                    0.0,
                    0.0,
                    0.0,
                    0.0,
                    0.0,
                    0.0,
                    0.0,
                    0.0,
                    0.0,
                    0.0,
                    0.0,
                    0.0,
                    0.0
                  ],
                  [
                    0.0,
                    0.0,
                    0.0,
                    0.0,
                    0.0,
                    0.0,
                    0.0,
                    0.0,
                    0.0,
                    0.0,
                    0.0,
                    0.0,
                    0.0,
                    0.0,
                    0.0,
                    0.0,
                    0.0,
                    0.0,
                    0.0,
                    0.0,
                    0.0,
                    0.0,
                    0.0,
                    0.0,
                    0.0,
                    0.0,
                    0.0,
                    0.0,
                    0.0,
                    0.0,
                    0.0,
                    0.0,
                    0.0,
                    0.0,
                    0.0,
                    0.0,
                    0.0,
                    0.0,
                    0.0,
                    0.0,
                    0.0,
                    0.0,
                    0.0,
                    0.0,
                    0.0,
                    0.0,
                    0.0,
                    0.0,
                    0.0,
                    0.0,
                    0.0,
                    0.0,
                    0.0,
                    0.0,
                    0.0,
                    0.0,
                    0.0,
                    0.0,
                    0.0,
                    0.0,
                    0.0,
                    0.0,
                    0.0,
                    0.0,
                    0.0,
                    0.0,
                    0.0,
                    0.0,
                    0.0,
                    0.0,
                    0.0,
                    0.0,
                    0.0
                  ],
                  [
                    0.0,
                    0.0,
                    0.0,
                    0.0,
                    0.0,
                    0.0,
                    0.0,
                    0.0,
                    0.0,
                    0.0,
                    0.0,
                    0.0,
                    0.0,
                    0.0,
                    0.0,
                    0.0,
                    0.0,
                    0.0,
                    0.0,
                    0.0,
                    0.0,
                    0.0,
                    0.0,
                    0.0,
                    0.0,
                    0.0,
                    0.0,
                    0.0,
                    0.0,
                    0.0,
                    0.0,
                    0.0,
                    0.0,
                    0.0,
                    0.0,
                    0.0,
                    0.0,
                    0.0,
                    0.0,
                    0.0,
                    0.0,
                    0.0,
                    0.0,
                    0.0,
                    0.0,
                    0.0,
                    0.0,
                    0.0,
                    0.0,
                    0.0,
                    0.0,
                    0.0,
                    0.0,
                    0.0,
                    0.0,
                    0.0,
                    0.0,
                    0.0,
                    0.0,
                    0.0,
                    0.0,
                    0.0,
                    0.0,
                    0.0,
                    0.0,
                    0.0,
                    0.0,
                    0.0,
                    0.0,
                    0.0,
                    0.0,
                    0.0,
                    0.0
                  ],
                  [
                    0.0003008332362274791,
                    2.2684854268222466e-17,
                    0.0,
                    0.0,
                    0.0,
                    0.0,
                    0.0,
                    0.0,
                    0.0,
                    0.0,
                    0.0,
                    0.0,
                    0.0,
                    0.0,
                    0.0,
                    0.0,
                    0.0,
                    0.0,
                    0.0,
                    0.0,
                    0.0,
                    0.0,
                    0.0,
                    0.0,
                    0.0,
                    0.0,
                    0.0,
                    0.0,
                    0.0,
                    0.0,
                    0.0,
                    0.0,
                    0.0,
                    0.0,
                    0.0,
                    0.0,
                    0.0,
                    0.0,
                    0.0,
                    0.0,
                    0.0,
                    0.0,
                    0.0,
                    0.0,
                    0.0,
                    0.0,
                    0.0,
                    0.0,
                    0.0,
                    0.0,
                    0.0,
                    0.0,
                    0.0,
                    0.0,
                    0.0,
                    0.0,
                    0.0,
                    0.0,
                    0.0,
                    0.0,
                    0.0,
                    0.0,
                    0.0,
                    0.0,
                    0.0,
                    0.0,
                    0.0,
                    0.0,
                    0.0,
                    0.0,
                    0.0,
                    0.0,
                    0.0
                  ],
                  [
                    1854439.388636101,
                    42.65264154635169,
                    7.777322039442695e-06,
                    8.935222455467679e-13,
                    2.712546248743405e-21,
                    0.0,
                    0.0,
                    0.0,
                    0.0,
                    0.0,
                    0.0,
                    0.0,
                    0.0,
                    0.0,
                    0.0,
                    0.0,
                    0.0,
                    0.0,
                    0.0,
                    0.0,
                    0.0,
                    0.0,
                    0.0,
                    0.0,
                    0.0,
                    0.0,
                    0.0,
                    0.0,
                    0.0,
                    0.0,
                    0.0,
                    0.0,
                    0.0,
                    0.0,
                    0.0,
                    0.0,
                    0.0,
                    0.0,
                    0.0,
                    0.0,
                    0.0,
                    0.0,
                    0.0,
                    0.0,
                    0.0,
                    0.0,
                    0.0,
                    0.0,
                    0.0,
                    0.0,
                    0.0,
                    0.0,
                    0.0,
                    0.0,
                    0.0,
                    0.0,
                    0.0,
                    0.0,
                    0.0,
                    0.0,
                    0.0,
                    0.0,
                    0.0,
                    0.0,
                    0.0,
                    0.0,
                    0.0,
                    0.0,
                    0.0,
                    0.0,
                    0.0,
                    0.0,
                    0.0
                  ],
                  [
                    1322388568.0982947,
                    7667942.453927224,
                    11275.488503427316,
                    5.687796025969365,
                    0.0005269008103125327,
                    3.583625666034249e-09,
                    5.981341978309549e-16,
                    0.0,
                    0.0,
                    0.0,
                    0.0,
                    0.0,
                    0.0,
                    0.0,
                    0.0,
                    0.0,
                    0.0,
                    0.0,
                    0.0,
                    0.0,
                    0.0,
                    0.0,
                    0.0,
                    0.0,
                    0.0,
                    0.0,
                    0.0,
                    0.0,
                    0.0,
                    0.0,
                    0.0,
                    0.0,
                    0.0,
                    0.0,
                    0.0,
                    0.0,
                    0.0,
                    0.0,
                    0.0,
                    0.0,
                    0.0,
                    0.0,
                    0.0,
                    0.0,
                    0.0,
                    0.0,
                    0.0,
                    0.0,
                    0.0,
                    0.0,
                    0.0,
                    0.0,
                    0.0,
                    0.0,
                    0.0,
                    0.0,
                    0.0,
                    0.0,
                    0.0,
                    0.0,
                    0.0,
                    0.0,
                    0.0,
                    0.0,
                    0.0,
                    0.0,
                    0.0,
                    0.0,
                    0.0,
                    0.0,
                    0.0,
                    0.0,
                    0.0
                  ],
                  [
                    28092779351.524014,
                    3875091564.8564386,
                    93416024.7855928,
                    1147419.6558831914,
                    5620.676365431479,
                    7.330082403788295,
                    0.0013292414830589916,
                    1.615150055217169e-08,
                    6.423178593170027e-15,
                    0.0,
                    0.0,
                    0.0,
                    0.0,
                    0.0,
                    0.0,
                    0.0,
                    0.0,
                    0.0,
                    0.0,
                    0.0,
                    0.0,
                    0.0,
                    0.0,
                    0.0,
                    0.0,
                    0.0,
                    0.0,
                    0.0,
                    0.0,
                    0.0,
                    0.0,
                    0.0,
                    0.0,
                    0.0,
                    0.0,
                    0.0,
                    0.0,
                    0.0,
                    0.0,
                    0.0,
                    0.0,
                    0.0,
                    0.0,
                    0.0,
                    0.0,
                    0.0,
                    0.0,
                    0.0,
                    0.0,
                    0.0,
                    0.0,
                    0.0,
                    0.0,
                    0.0,
                    0.0,
                    0.0,
                    0.0,
                    0.0,
                    0.0,
                    0.0,
                    0.0,
                    0.0,
                    0.0,
                    0.0,
                    0.0,
                    0.0,
                    0.0,
                    0.0,
                    0.0,
                    0.0,
                    0.0,
                    0.0,
                    0.0
                  ],
                  [
                    126861999869.40997,
                    24597061255.685043,
                    2177371670.574951,
                    123242550.16835508,
                    3620065.6345202755,
                    42664.271517911395,
                    133.9075914180834,
                    0.0696712737346864,
                    3.673307748037634e-06,
                    1.1298757946400581e-11,
                    1.0292798503067204e-18,
                    0.0,
                    0.0,
                    0.0,
                    0.0,
                    0.0,
                    0.0,
                    0.0,
                    0.0,
                    0.0,
                    0.0,
                    0.0,
                    0.0,
                    0.0,
                    0.0,
                    0.0,
                    0.0,
                    0.0,
                    0.0,
                    0.0,
                    0.0,
                    0.0,
                    0.0,
                    0.0,
                    0.0,
                    0.0,
                    0.0,
                    0.0,
                    0.0,
                    0.0,
                    0.0,
                    0.0,
                    0.0,
                    0.0,
                    0.0,
                    0.0,
                    0.0,
                    0.0,
                    0.0,
                    0.0,
                    0.0,
                    0.0,
                    0.0,
                    0.0,
                    0.0,
                    0.0,
                    0.0,
                    0.0,
                    0.0,
                    0.0,
                    0.0,
                    0.0,
                    0.0,
                    0.0,
                    0.0,
                    0.0,
                    0.0,
                    0.0,
                    0.0,
                    0.0,
                    0.0,
                    0.0,
                    0.0
                  ],
                  [
                    281293804028.8203,
                    76825592668.16849,
                    13486530039.48788,
                    1729641947.1910036,
                    137081381.27976888,
                    5572756.753097513,
                    87018.85535823285,
                    372.5530619817907,
                    0.30552067880746875,
                    3.147674622920525e-05,
                    2.433932144598699e-10,
                    7.434062667915758e-17,
                    0.0,
                    0.0,
                    0.0,
                    0.0,
                    0.0,
                    0.0,
                    0.0,
                    0.0,
                    0.0,
                    0.0,
                    0.0,
                    0.0,
                    0.0,
                    0.0,
                    0.0,
                    0.0,
                    0.0,
                    0.0,
                    0.0,
                    0.0,
                    0.0,
                    0.0,
                    0.0,
                    0.0,
                    0.0,
                    0.0,
                    0.0,
                    0.0,
                    0.0,
                    0.0,
                    0.0,
                    0.0,
                    0.0,
                    0.0,
                    0.0,
                    0.0,
                    0.0,
                    0.0,
                    0.0,
                    0.0,
                    0.0,
                    0.0,
                    0.0,
                    0.0,
                    0.0,
                    0.0,
                    0.0,
                    0.0,
                    0.0,
                    0.0,
                    0.0,
                    0.0,
                    0.0,
                    0.0,
                    0.0,
                    0.0,
                    0.0,
                    0.0,
                    0.0,
                    0.0,
                    0.0
                  ],
                  [
                    433418943944.70605,
                    154543532471.59857,
                    40561385603.11875,
                    8411070562.895088,
                    1203958946.451325,
                    102936289.18368657,
                    4215717.981793926,
                    63935.49275010321,
                    272.3384978154489,
                    0.23378411113831044,
                    2.6935082960457083e-05,
                    2.521349287417521e-10,
                    1.0412975436094075e-16,
                    0.0,
                    0.0,
                    0.0,
                    0.0,
                    0.0,
                    0.0,
                    0.0,
                    0.0,
                    0.0,
                    0.0,
                    0.0,
                    0.0,
                    0.0,
                    0.0,
                    0.0,
                    0.0,
                    0.0,
                    0.0,
                    0.0,
                    0.0,
                    0.0,
                    0.0,
                    0.0,
                    0.0,
                    0.0,
                    0.0,
                    0.0,
                    0.0,
                    0.0,
                    0.0,
                    0.0,
                    0.0,
                    0.0,
                    0.0,
                    0.0,
                    0.0,
                    0.0,
                    0.0,
                    0.0,
                    0.0,
                    0.0,
                    0.0,
                    0.0,
                    0.0,
                    0.0,
                    0.0,
                    0.0,
                    0.0,
                    0.0,
                    0.0,
                    0.0,
                    0.0,
                    0.0,
                    0.0,
                    0.0,
                    0.0,
                    0.0,
                    0.0,
                    0.0,
                    0.0
                  ],
                  [
                    560875931488.3105,
                    242206136076.88864,
                    82535663186.54953,
                    23324544110.883595,
                    4892005556.3832445,
                    677298328.4115866,
                    51855299.694651216,
                    1786029.1406224458,
                    22148.255382761417,
                    75.47533325561653,
                    0.050722681946449875,
                    4.46928501425703e-06,
                    3.143959530437665e-11,
                    9.570437961137664e-18,
                    0.0,
                    0.0,
                    0.0,
                    0.0,
                    0.0,
                    0.0,
                    0.0,
                    0.0,
                    0.0,
                    0.0,
                    0.0,
                    0.0,
                    0.0,
                    0.0,
                    0.0,
                    0.0,
                    0.0,
                    0.0,
                    0.0,
                    0.0,
                    0.0,
                    0.0,
                    0.0,
                    0.0,
                    0.0,
                    0.0,
                    0.0,
                    0.0,
                    0.0,
                    0.0,
                    0.0,
                    0.0,
                    0.0,
                    0.0,
                    0.0,
                    0.0,
                    0.0,
                    0.0,
                    0.0,
                    0.0,
                    0.0,
                    0.0,
                    0.0,
                    0.0,
                    0.0,
                    0.0,
                    0.0,
                    0.0,
                    0.0,
                    0.0,
                    0.0,
                    0.0,
                    0.0,
                    0.0,
                    0.0,
                    0.0,
                    0.0,
                    0.0,
                    0.0
                  ],
                  [
                    663285041952.1208,
                    328742097085.4654,
                    134229844606.21565,
                    46947937724.92219,
                    12812548305.31576,
                    2474026400.4403386,
                    291755123.75722295,
                    17701732.349772207,
                    459036.8604542402,
                    4057.210708333449,
                    9.252136203644135,
                    0.0038666507909585483,
                    1.9547093493911635e-07,
                    7.18071817103271e-13,
                    1.0289481998422512e-19,
                    0.0,
                    0.0,
                    0.0,
                    0.0,
                    0.0,
                    0.0,
                    0.0,
                    0.0,
                    0.0,
                    0.0,
                    0.0,
                    0.0,
                    0.0,
                    0.0,
                    0.0,
                    0.0,
                    0.0,
                    0.0,
                    0.0,
                    0.0,
                    0.0,
                    0.0,
                    0.0,
                    0.0,
                    0.0,
                    0.0,
                    0.0,
                    0.0,
                    0.0,
                    0.0,
                    0.0,
                    0.0,
                    0.0,
                    0.0,
                    0.0,
                    0.0,
                    0.0,
                    0.0,
                    0.0,
                    0.0,
                    0.0,
                    0.0,
                    0.0,
                    0.0,
                    0.0,
                    0.0,
                    0.0,
                    0.0,
                    0.0,
                    0.0,
                    0.0,
                    0.0,
                    0.0,
                    0.0,
                    0.0,
                    0.0,
                    0.0,
                    0.0
                  ],
                  [
                    745412392276.3351,
                    408988693102.5531,
                    190438001541.84253,
                    77728837643.48479,
                    25670148987.38854,
                    6308559196.98019,
                    1017598821.2719156,
                    93082142.61474566,
                    4121037.178893597,
                    72737.05685119041,
                    403.03612252957436,
                    0.5228489936959635,
                    0.00011121557805302882,
                    2.5102188066942375e-09,
                    3.542193979616119e-15,
                    0.0,
                    0.0,
                    0.0,
                    0.0,
                    0.0,
                    0.0,
                    0.0,
                    0.0,
                    0.0,
                    0.0,
                    0.0,
                    0.0,
                    0.0,
                    0.0,
                    0.0,
                    0.0,
                    0.0,
                    0.0,
                    0.0,
                    0.0,
                    0.0,
                    0.0,
                    0.0,
                    0.0,
                    0.0,
                    0.0,
                    0.0,
                    0.0,
                    0.0,
                    0.0,
                    0.0,
                    0.0,
                    0.0,
                    0.0,
                    0.0,
                    0.0,
                    0.0,
                    0.0,
                    0.0,
                    0.0,
                    0.0,
                    0.0,
                    0.0,
                    0.0,
                    0.0,
                    0.0,
                    0.0,
                    0.0,
                    0.0,
                    0.0,
                    0.0,
                    0.0,
                    0.0,
                    0.0,
                    0.0,
                    0.0,
                    0.0,
                    0.0
                  ],
                  [
                    811979794430.8976,
                    481302759664.12134,
                    247454525994.29507,
                    113458040191.82085,
                    43259169063.75467,
                    12750278045.298227,
                    2604466115.9646277,
                    324652387.3820911,
                    21512998.48267664,
                    639766.7972103887,
                    6929.565888638694,
                    21.158404420865498,
                    0.013343177154977924,
                    1.1895787102330426e-06,
                    9.469647537154274e-12,
                    3.757862850160039e-18,
                    0.0,
                    0.0,
                    0.0,
                    0.0,
                    0.0,
                    0.0,
                    0.0,
                    0.0,
                    0.0,
                    0.0,
                    0.0,
                    0.0,
                    0.0,
                    0.0,
                    0.0,
                    0.0,
                    0.0,
                    0.0,
                    0.0,
                    0.0,
                    0.0,
                    0.0,
                    0.0,
                    0.0,
                    0.0,
                    0.0,
                    0.0,
                    0.0,
                    0.0,
                    0.0,
                    0.0,
                    0.0,
                    0.0,
                    0.0,
                    0.0,
                    0.0,
                    0.0,
                    0.0,
                    0.0,
                    0.0,
                    0.0,
                    0.0,
                    0.0,
                    0.0,
                    0.0,
                    0.0,
                    0.0,
                    0.0,
                    0.0,
                    0.0,
                    0.0,
                    0.0,
                    0.0,
                    0.0,
                    0.0,
                    0.0,
                    0.0
                  ],
                  [
                    866692073048.3281,
                    545684399050.7183,
                    303036853857.802,
                    152089052763.40497,
                    64841136621.73737,
                    22013376031.356762,
                    5403302419.645053,
                    856872162.5474505,
                    77704967.16312979,
                    3468102.6308753686,
                    63306.57952979431,
                    376.6054257520191,
                    0.5541953492460627,
                    0.00014424324024097003,
                    4.425575313274912e-09,
                    9.569596048007572e-15,
                    0.0,
                    0.0,
                    0.0,
                    0.0,
                    0.0,
                    0.0,
                    0.0,
                    0.0,
                    0.0,
                    0.0,
                    0.0,
                    0.0,
                    0.0,
                    0.0,
                    0.0,
                    0.0,
                    0.0,
                    0.0,
                    0.0,
                    0.0,
                    0.0,
                    0.0,
                    0.0,
                    0.0,
                    0.0,
                    0.0,
                    0.0,
                    0.0,
                    0.0,
                    0.0,
                    0.0,
                    0.0,
                    0.0,
                    0.0,
                    0.0,
                    0.0,
                    0.0,
                    0.0,
                    0.0,
                    0.0,
                    0.0,
                    0.0,
                    0.0,
                    0.0,
                    0.0,
                    0.0,
                    0.0,
                    0.0,
                    0.0,
                    0.0,
                    0.0,
                    0.0,
                    0.0,
                    0.0,
                    0.0,
                    0.0,
                    0.0
                  ],
                  [
                    912295155967.1218,
                    602784969980.8667,
                    355980646212.11926,
                    192018360212.0705,
                    89493414787.01901,
                    34010690151.295963,
                    9666095515.832092,
                    1857598693.180636,
                    216385725.00976294,
                    13354708.1893129,
                    369851.67918423965,
                    3749.015637885437,
                    10.861180989939369,
                    0.006658365870570447,
                    6.00787095507657e-07,
                    5.036781335473939e-12,
                    2.303967847573274e-18,
                    0.0,
                    0.0,
                    0.0,
                    0.0,
                    0.0,
                    0.0,
                    0.0,
                    0.0,
                    0.0,
                    0.0,
                    0.0,
                    0.0,
                    0.0,
                    0.0,
                    0.0,
                    0.0,
                    0.0,
                    0.0,
                    0.0,
                    0.0,
                    0.0,
                    0.0,
                    0.0,
                    0.0,
                    0.0,
                    0.0,
                    0.0,
                    0.0,
                    0.0,
                    0.0,
                    0.0,
                    0.0,
                    0.0,
                    0.0,
                    0.0,
                    0.0,
                    0.0,
                    0.0,
                    0.0,
                    0.0,
                    0.0,
                    0.0,
                    0.0,
                    0.0,
                    0.0,
                    0.0,
                    0.0,
                    0.0,
                    0.0,
                    0.0,
                    0.0,
                    0.0,
                    0.0,
                    0.0,
                    0.0,
                    0.0
                  ],
                  [
                    950804350297.5486,
                    653448157935.758,
                    405733401371.1457,
                    232096762538.9524,
                    116318411343.82259,
                    48461885985.43464,
                    15521383502.263542,
                    3488612070.2817554,
                    498401259.2432815,
                    40064441.89910553,
                    1558876.023148237,
                    24408.85409599997,
                    122.91927582028455,
                    0.1516504836868459,
                    3.300845549330258e-05,
                    8.362779933919013e-10,
                    1.5246440473515343e-15,
                    0.0,
                    0.0,
                    0.0,
                    0.0,
                    0.0,
                    0.0,
                    0.0,
                    0.0,
                    0.0,
                    0.0,
                    0.0,
                    0.0,
                    0.0,
                    0.0,
                    0.0,
                    0.0,
                    0.0,
                    0.0,
                    0.0,
                    0.0,
                    0.0,
                    0.0,
                    0.0,
                    0.0,
                    0.0,
                    0.0,
                    0.0,
                    0.0,
                    0.0,
                    0.0,
                    0.0,
                    0.0,
                    0.0,
                    0.0,
                    0.0,
                    0.0,
                    0.0,
                    0.0,
                    0.0,
                    0.0,
                    0.0,
                    0.0,
                    0.0,
                    0.0,
                    0.0,
                    0.0,
                    0.0,
                    0.0,
                    0.0,
                    0.0,
                    0.0,
                    0.0,
                    0.0,
                    0.0,
                    0.0,
                    0.0
                  ],
                  [
                    983708253318.2117,
                    698514491375.9548,
                    452125957423.80884,
                    271548518358.72177,
                    144538123766.88538,
                    64992188835.81219,
                    22985366800.023716,
                    5883252562.734005,
                    995653552.8834288,
                    99665682.0221798,
                    5142548.990932169,
                    115538.84852327066,
                    920.953800286223,
                    2.0313305947959543,
                    0.0009188531979115542,
                    5.8328510573844237e-08,
                    3.351821178600827e-13,
                    1.0394671864980755e-19,
                    0.0,
                    0.0,
                    0.0,
                    0.0,
                    0.0,
                    0.0,
                    0.0,
                    0.0,
                    0.0,
                    0.0,
                    0.0,
                    0.0,
                    0.0,
                    0.0,
                    0.0,
                    0.0,
                    0.0,
                    0.0,
                    0.0,
                    0.0,
                    0.0,
                    0.0,
                    0.0,
                    0.0,
                    0.0,
                    0.0,
                    0.0,
                    0.0,
                    0.0,
                    0.0,
                    0.0,
                    0.0,
                    0.0,
                    0.0,
                    0.0,
                    0.0,
                    0.0,
                    0.0,
                    0.0,
                    0.0,
                    0.0,
                    0.0,
                    0.0,
                    0.0,
                    0.0,
                    0.0,
                    0.0,
                    0.0,
                    0.0,
                    0.0,
                    0.0,
                    0.0,
                    0.0,
                    0.0,
                    0.0
                  ],
                  [
                    1012120000327.0791,
                    738747079825.6726,
                    495203377741.71515,
                    309877084305.19324,
                    173520925808.41052,
                    83201921123.52448,
                    31988679865.772842,
                    9135045058.511637,
                    1783094891.6130528,
                    214718425.26303104,
                    14053983.982432239,
                    428077.26316077425,
                    5025.342666218978,
                    18.090465095277473,
                    0.015162273541873873,
                    2.0877905836023437e-06,
                    3.157167906665978e-11,
                    3.2600655618567956e-17,
                    0.0,
                    0.0,
                    0.0,
                    0.0,
                    0.0,
                    0.0,
                    0.0,
                    0.0,
                    0.0,
                    0.0,
                    0.0,
                    0.0,
                    0.0,
                    0.0,
                    0.0,
                    0.0,
                    0.0,
                    0.0,
                    0.0,
                    0.0,
                    0.0,
                    0.0,
                    0.0,
                    0.0,
                    0.0,
                    0.0,
                    0.0,
                    0.0,
                    0.0,
                    0.0,
                    0.0,
                    0.0,
                    0.0,
                    0.0,
                    0.0,
                    0.0,
                    0.0,
                    0.0,
                    0.0,
                    0.0,
                    0.0,
                    0.0,
                    0.0,
                    0.0,
                    0.0,
                    0.0,
                    0.0,
                    0.0,
                    0.0,
                    0.0,
                    0.0,
                    0.0,
                    0.0,
                    0.0,
                    0.0
                  ],
                  [
                    1036883794800.7562,
                    774810826490.052,
                    535123200427.088,
                    346784463473.751,
                    202775282402.6086,
                    102708202483.7119,
                    42405364476.96879,
                    13295693584.827835,
                    2931310005.0597286,
                    413288929.4622917,
                    33140422.638600614,
                    1308945.9909695617,
                    21386.054696231306,
                    116.97350966365589,
                    0.1660093562719215,
                    4.4279225143207924e-05,
                    1.5294883941929042e-09,
                    4.409044617275746e-15,
                    0.0,
                    0.0,
                    0.0,
                    0.0,
                    0.0,
                    0.0,
                    0.0,
                    0.0,
                    0.0,
                    0.0,
                    0.0,
                    0.0,
                    0.0,
                    0.0,
                    0.0,
                    0.0,
                    0.0,
                    0.0,
                    0.0,
                    0.0,
                    0.0,
                    0.0,
                    0.0,
                    0.0,
                    0.0,
                    0.0,
                    0.0,
                    0.0,
                    0.0,
                    0.0,
                    0.0,
                    0.0,
                    0.0,
                    0.0,
                    0.0,
                    0.0,
                    0.0,
                    0.0,
                    0.0,
                    0.0,
                    0.0,
                    0.0,
                    0.0,
                    0.0,
                    0.0,
                    0.0,
                    0.0,
                    0.0,
                    0.0,
                    0.0,
                    0.0,
                    0.0,
                    0.0,
                    0.0,
                    0.0
                  ],
                  [
                    1058649067782.2379,
                    807273993832.8845,
                    572095845555.2346,
                    382109574834.7165,
                    231930429827.43933,
                    123166291742.7229,
                    54077636439.33214,
                    18379052499.946114,
                    4501055662.265996,
                    727147857.8692147,
                    69475971.75299083,
                    3434077.7505625025,
                    74639.83788348202,
                    585.8588874161067,
                    1.310190297727791,
                    0.000618466518645789,
                    4.358526768988187e-08,
                    3.0476304817767315e-13,
                    1.306544457081227e-19,
                    0.0,
                    0.0,
                    0.0,
                    0.0,
                    0.0,
                    0.0,
                    0.0,
                    0.0,
                    0.0,
                    0.0,
                    0.0,
                    0.0,
                    0.0,
                    0.0,
                    0.0,
                    0.0,
                    0.0,
                    0.0,
                    0.0,
                    0.0,
                    0.0,
                    0.0,
                    0.0,
                    0.0,
                    0.0,
                    0.0,
                    0.0,
                    0.0,
                    0.0,
                    0.0,
                    0.0,
                    0.0,
                    0.0,
                    0.0,
                    0.0,
                    0.0,
                    0.0,
                    0.0,
                    0.0,
                    0.0,
                    0.0,
                    0.0,
                    0.0,
                    0.0,
                    0.0,
                    0.0,
                    0.0,
                    0.0,
                    0.0,
                    0.0,
                    0.0,
                    0.0,
                    0.0,
                    0.0
                  ],
                  [
                    1077922288810.6718,
                    836618105470.9845,
                    606350504861.9191,
                    415783618838.20593,
                    260714102498.0453,
                    144277910883.15314,
                    66834544139.21744,
                    24367977126.04625,
                    6540092536.940374,
                    1189630348.0048406,
                    132421388.9188789,
                    7958760.518951165,
                    221852.1804301523,
                    2385.8674544170462,
                    7.931779270297943,
                    0.006158539305032405,
                    8.080479389560849e-07,
                    1.2230619443303899e-11,
                    1.3619365775990872e-17,
                    0.0,
                    0.0,
                    0.0,
                    0.0,
                    0.0,
                    0.0,
                    0.0,
                    0.0,
                    0.0,
                    0.0,
                    0.0,
                    0.0,
                    0.0,
                    0.0,
                    0.0,
                    0.0,
                    0.0,
                    0.0,
                    0.0,
                    0.0,
                    0.0,
                    0.0,
                    0.0,
                    0.0,
                    0.0,
                    0.0,
                    0.0,
                    0.0,
                    0.0,
                    0.0,
                    0.0,
                    0.0,
                    0.0,
                    0.0,
                    0.0,
                    0.0,
                    0.0,
                    0.0,
                    0.0,
                    0.0,
                    0.0,
                    0.0,
                    0.0,
                    0.0,
                    0.0,
                    0.0,
                    0.0,
                    0.0,
                    0.0,
                    0.0,
                    0.0,
                    0.0,
                    0.0,
                    0.0
                  ],
                  [
                    1095103525916.117,
                    863250030752.7238,
                    638116177496.9918,
                    447798665339.3571,
                    288931761176.52924,
                    165792020639.55872,
                    80504822953.30292,
                    31221910687.66859,
                    9082025824.446054,
                    1833567312.5160246,
                    233429402.92155957,
                    16660698.858600639,
                    577988.3802778756,
                    8198.836650662928,
                    38.6254214788931,
                    0.04645205272591775,
                    1.0526342192494723e-05,
                    3.141292336077498e-10,
                    8.094180189944517e-16,
                    0.0,
                    0.0,
                    0.0,
                    0.0,
                    0.0,
                    0.0,
                    0.0,
                    0.0,
                    0.0,
                    0.0,
                    0.0,
                    0.0,
                    0.0,
                    0.0,
                    0.0,
                    0.0,
                    0.0,
                    0.0,
                    0.0,
                    0.0,
                    0.0,
                    0.0,
                    0.0,
                    0.0,
                    0.0,
                    0.0,
                    0.0,
                    0.0,
                    0.0,
                    0.0,
                    0.0,
                    0.0,
                    0.0,
                    0.0,
                    0.0,
                    0.0,
                    0.0,
                    0.0,
                    0.0,
                    0.0,
                    0.0,
                    0.0,
                    0.0,
                    0.0,
                    0.0,
                    0.0,
                    0.0,
                    0.0,
                    0.0,
                    0.0,
                    0.0,
                    0.0,
                    0.0,
                    0.0
                  ],
                  [
                    1110512569619.1292,
                    887513689442.994,
                    667611616820.3676,
                    478185914007.2815,
                    316448908540.51434,
                    187501647678.33917,
                    94925054813.18745,
                    38883979733.839035,
                    12146628259.815126,
                    2689550939.801263,
                    385646666.93331546,
                    32051965.906699657,
                    1349731.4385101176,
                    24468.922150890623,
                    156.98697810920137,
                    0.278187717288991,
                    0.00010228898943247793,
                    5.569191911753012e-09,
                    3.016797439789919e-14,
                    1.0342637616750521e-20,
                    0.0,
                    0.0,
                    0.0,
                    0.0,
                    0.0,
                    0.0,
                    0.0,
                    0.0,
                    0.0,
                    0.0,
                    0.0,
                    0.0,
                    0.0,
                    0.0,
                    0.0,
                    0.0,
                    0.0,
                    0.0,
                    0.0,
                    0.0,
                    0.0,
                    0.0,
                    0.0,
                    0.0,
                    0.0,
                    0.0,
                    0.0,
                    0.0,
                    0.0,
                    0.0,
                    0.0,
                    0.0,
                    0.0,
                    0.0,
                    0.0,
                    0.0,
                    0.0,
                    0.0,
                    0.0,
                    0.0,
                    0.0,
                    0.0,
                    0.0,
                    0.0,
                    0.0,
                    0.0,
                    0.0,
                    0.0,
                    0.0,
                    0.0,
                    0.0,
                    0.0,
                    0.0
                  ],
                  [
                    1124407851061.1248,
                    909700437294.1766,
                    695040469179.4794,
                    507000814489.12946,
                    343176738631.4708,
                    209238956155.647,
                    109944355733.51645,
                    47287031105.04358,
                    15741107327.358908,
                    3784653327.886781,
                    603388244.5726411,
                    57442873.16809063,
                    2875383.671182722,
                    64875.87988113115,
                    548.230419105618,
                    1.3727144906576085,
                    0.0007772299972330462,
                    7.233989523421704e-08,
                    7.600898198134549e-13,
                    5.878804789129566e-19,
                    0.0,
                    0.0,
                    0.0,
                    0.0,
                    0.0,
                    0.0,
                    0.0,
                    0.0,
                    0.0,
                    0.0,
                    0.0,
                    0.0,
                    0.0,
                    0.0,
                    0.0,
                    0.0,
                    0.0,
                    0.0,
                    0.0,
                    0.0,
                    0.0,
                    0.0,
                    0.0,
                    0.0,
                    0.0,
                    0.0,
                    0.0,
                    0.0,
                    0.0,
                    0.0,
                    0.0,
                    0.0,
                    0.0,
                    0.0,
                    0.0,
                    0.0,
                    0.0,
                    0.0,
                    0.0,
                    0.0,
                    0.0,
                    0.0,
                    0.0,
                    0.0,
                    0.0,
                    0.0,
                    0.0,
                    0.0,
                    0.0,
                    0.0,
                    0.0,
                    0.0,
                    0.0
                  ],
                  [
                    1137000325844.9097,
                    930057908824.665,
                    720589395998.0654,
                    534312972281.8005,
                    369060811656.9503,
                    230869816466.62808,
                    125426649615.96332,
                    56358450352.83596,
                    19861872209.06479,
                    5141610542.338215,
                    901561756.5356479,
                    96950245.51665038,
                    5667158.813117497,
                    155602.3737294353,
                    1683.6178675849408,
                    5.7488759270539145,
                    0.0047947498127889464,
                    7.219642208218049e-07,
                    1.3744569976342475e-11,
                    2.2055828525422027e-17,
                    0.0,
                    0.0,
                    0.0,
                    0.0,
                    0.0,
                    0.0,
                    0.0,
                    0.0,
                    0.0,
                    0.0,
                    0.0,
                    0.0,
                    0.0,
                    0.0,
                    0.0,
                    0.0,
                    0.0,
                    0.0,
                    0.0,
                    0.0,
                    0.0,
                    0.0,
                    0.0,
                    0.0,
                    0.0,
                    0.0,
                    0.0,
                    0.0,
                    0.0,
                    0.0,
                    0.0,
                    0.0,
                    0.0,
                    0.0,
                    0.0,
                    0.0,
                    0.0,
                    0.0,
                    0.0,
                    0.0,
                    0.0,
                    0.0,
                    0.0,
                    0.0,
                    0.0,
                    0.0,
                    0.0,
                    0.0,
                    0.0,
                    0.0,
                    0.0,
                    0.0,
                    0.0
                  ],
                  [
                    1148463795546.6343,
                    948797390845.508,
                    744427870334.493,
                    560199363748.7041,
                    394072268208.81146,
                    252288537378.57687,
                    141251348990.36328,
                    66023820059.89537,
                    24496477725.412563,
                    6778420545.92122,
                    1295105185.2472284,
                    155451553.01759118,
                    10451543.813313857,
                    342576.5483270164,
                    4632.71968347101,
                    20.92771107498607,
                    0.024754801399548203,
                    5.752768365314583e-06,
                    1.872124609923159e-10,
                    5.802734307285575e-16,
                    0.0,
                    0.0,
                    0.0,
                    0.0,
                    0.0,
                    0.0,
                    0.0,
                    0.0,
                    0.0,
                    0.0,
                    0.0,
                    0.0,
                    0.0,
                    0.0,
                    0.0,
                    0.0,
                    0.0,
                    0.0,
                    0.0,
                    0.0,
                    0.0,
                    0.0,
                    0.0,
                    0.0,
                    0.0,
                    0.0,
                    0.0,
                    0.0,
                    0.0,
                    0.0,
                    0.0,
                    0.0,
                    0.0,
                    0.0,
                    0.0,
                    0.0,
                    0.0,
                    0.0,
                    0.0,
                    0.0,
                    0.0,
                    0.0,
                    0.0,
                    0.0,
                    0.0,
                    0.0,
                    0.0,
                    0.0,
                    0.0,
                    0.0,
                    0.0,
                    0.0,
                    0.0
                  ],
                  [
                    1158942675671.2368,
                    966099906771.9954,
                    766708874536.2644,
                    584739827847.132,
                    418201088109.1613,
                    273413079056.10574,
                    157313039424.53876,
                    76209574577.91582,
                    29625534052.385048,
                    8708274259.373358,
                    1798483454.0371156,
                    238492992.33668476,
                    18203620.47221637,
                    700620.4508896355,
                    11597.771276852902,
                    67.52460301351334,
                    0.10964394365818657,
                    3.776268957510726e-05,
                    1.998016555237714e-09,
                    1.1247837036361534e-14,
                    4.4241790610356816e-21,
                    0.0,
                    0.0,
                    0.0,
                    0.0,
                    0.0,
                    0.0,
                    0.0,
                    0.0,
                    0.0,
                    0.0,
                    0.0,
                    0.0,
                    0.0,
                    0.0,
                    0.0,
                    0.0,
                    0.0,
                    0.0,
                    0.0,
                    0.0,
                    0.0,
                    0.0,
                    0.0,
                    0.0,
                    0.0,
                    0.0,
                    0.0,
                    0.0,
                    0.0,
                    0.0,
                    0.0,
                    0.0,
                    0.0,
                    0.0,
                    0.0,
                    0.0,
                    0.0,
                    0.0,
                    0.0,
                    0.0,
                    0.0,
                    0.0,
                    0.0,
                    0.0,
                    0.0,
                    0.0,
                    0.0,
                    0.0,
                    0.0,
                    0.0,
                    0.0,
                    0.0
                  ],
                  [
                    1168557909842.8796,
                    982121213825.5503,
                    787570044742.9587,
                    608014119203.021,
                    441450956264.1531,
                    294180866252.49634,
                    173520582638.76108,
                    86844836485.17976,
                    35224458652.41583,
                    10939733024.663965,
                    2425270128.911172,
                    352163370.21522915,
                    30172091.589858472,
                    1344170.4590637297,
                    26749.977796089384,
                    196.23528609105645,
                    0.425207043601153,
                    0.00020954496359821195,
                    1.7259479347060014e-08,
                    1.673014899705117e-13,
                    1.2772148999572727e-19,
                    0.0,
                    0.0,
                    0.0,
                    0.0,
                    0.0,
                    0.0,
                    0.0,
                    0.0,
                    0.0,
                    0.0,
                    0.0,
                    0.0,
                    0.0,
                    0.0,
                    0.0,
                    0.0,
                    0.0,
                    0.0,
                    0.0,
                    0.0,
                    0.0,
                    0.0,
                    0.0,
                    0.0,
                    0.0,
                    0.0,
                    0.0,
                    0.0,
                    0.0,
                    0.0,
                    0.0,
                    0.0,
                    0.0,
                    0.0,
                    0.0,
                    0.0,
                    0.0,
                    0.0,
                    0.0,
                    0.0,
                    0.0,
                    0.0,
                    0.0,
                    0.0,
                    0.0,
                    0.0,
                    0.0,
                    0.0,
                    0.0,
                    0.0,
                    0.0,
                    0.0
                  ],
                  [
                    1177411521772.5684,
                    996995902404.3945,
                    807134998556.2354,
                    630100028932.9917,
                    463835373303.18854,
                    314545214011.532,
                    189795916803.219,
                    97862613088.1783,
                    41265009392.494064,
                    13477072935.48869,
                    3187825001.935322,
                    502946812.2260065,
                    47892961.4688771,
                    2439011.6366061773,
                    57441.14768427769,
                    520.5486409146694,
                    1.468480317254482,
                    0.0010042202968196029,
                    1.2397634052933758e-07,
                    1.9751653523322035e-12,
                    2.765035741588126e-18,
                    0.0,
                    0.0,
                    0.0,
                    0.0,
                    0.0,
                    0.0,
                    0.0,
                    0.0,
                    0.0,
                    0.0,
                    0.0,
                    0.0,
                    0.0,
                    0.0,
                    0.0,
                    0.0,
                    0.0,
                    0.0,
                    0.0,
                    0.0,
                    0.0,
                    0.0,
                    0.0,
                    0.0,
                    0.0,
                    0.0,
                    0.0,
                    0.0,
                    0.0,
                    0.0,
                    0.0,
                    0.0,
                    0.0,
                    0.0,
                    0.0,
                    0.0,
                    0.0,
                    0.0,
                    0.0,
                    0.0,
                    0.0,
                    0.0,
                    0.0,
                    0.0,
                    0.0,
                    0.0,
                    0.0,
                    0.0,
                    0.0,
                    0.0,
                    0.0,
                    0.0
                  ],
                  [
                    1185590154553.553,
                    1010840761948.3053,
                    825514696093.9395,
                    651072233145.7158,
                    485374721838.8126,
                    334472324927.83167,
                    206072734574.3139,
                    109200508572.35904,
                    47716579120.74991,
                    16320729694.28972,
                    4097066932.8288026,
                    697566589.0412008,
                    73191095.42433488,
                    4214321.341241815,
                    115844.81306999046,
                    1274.5830759375592,
                    4.580929386744293,
                    0.00423170619330066,
                    7.574379135375196e-07,
                    1.9040270471736293e-11,
                    4.650098686913209e-17,
                    0.0,
                    0.0,
                    0.0,
                    0.0,
                    0.0,
                    0.0,
                    0.0,
                    0.0,
                    0.0,
                    0.0,
                    0.0,
                    0.0,
                    0.0,
                    0.0,
                    0.0,
                    0.0,
                    0.0,
                    0.0,
                    0.0,
                    0.0,
                    0.0,
                    0.0,
                    0.0,
                    0.0,
                    0.0,
                    0.0,
                    0.0,
                    0.0,
                    0.0,
                    0.0,
                    0.0,
                    0.0,
                    0.0,
                    0.0,
                    0.0,
                    0.0,
                    0.0,
                    0.0,
                    0.0,
                    0.0,
                    0.0,
                    0.0,
                    0.0,
                    0.0,
                    0.0,
                    0.0,
                    0.0,
                    0.0,
                    0.0,
                    0.0,
                    0.0,
                    0.0
                  ],
                  [
                    1193167848852.5623,
                    1023757550642.749,
                    842808752616.2719,
                    671001634865.3789,
                    506094062324.281,
                    353938794204.18964,
                    222295151468.8174,
                    120801079993.74191,
                    54547257208.876915,
                    19467792362.61368,
                    5162333979.676295,
                    942830471.7869055,
                    108170019.10240255,
                    6974263.835089205,
                    221051.12101377363,
                    2907.9898927027807,
                    13.06350095613555,
                    0.015919003205905998,
                    4.011744379254565e-06,
                    1.5349009765433926e-10,
                    6.258527766264236e-16,
                    0.0,
                    0.0,
                    0.0,
                    0.0,
                    0.0,
                    0.0,
                    0.0,
                    0.0,
                    0.0,
                    0.0,
                    0.0,
                    0.0,
                    0.0,
                    0.0,
                    0.0,
                    0.0,
                    0.0,
                    0.0,
                    0.0,
                    0.0,
                    0.0,
                    0.0,
                    0.0,
                    0.0,
                    0.0,
                    0.0,
                    0.0,
                    0.0,
                    0.0,
                    0.0,
                    0.0,
                    0.0,
                    0.0,
                    0.0,
                    0.0,
                    0.0,
                    0.0,
                    0.0,
                    0.0,
                    0.0,
                    0.0,
                    0.0,
                    0.0,
                    0.0,
                    0.0,
                    0.0,
                    0.0,
                    0.0,
                    0.0,
                    0.0,
                    0.0,
                    0.0
                  ],
                  [
                    1200208243136.0552,
                    1035835281442.3833,
                    859106661258.3607,
                    689955037960.2506,
                    526021484066.9946,
                    372929552604.0077,
                    238416431220.21658,
                    132611938750.97044,
                    61724677520.493774,
                    22912508135.413055,
                    6391318819.222044,
                    1245485635.3932223,
                    155191197.0225848,
                    11108412.554131625,
                    401603.42660287756,
                    6231.815680360665,
                    34.40376101713157,
                    0.05415256999327968,
                    1.8721120350080985e-05,
                    1.055930160390308e-09,
                    6.913665312363595e-15,
                    3.559545842916429e-21,
                    0.0,
                    0.0,
                    0.0,
                    0.0,
                    0.0,
                    0.0,
                    0.0,
                    0.0,
                    0.0,
[...]
                    1.9608366156062358e+17,
                    1.958309723247697e+17,
                    1.9557859758783894e+17,
                    1.953270913430542e+17,
                    1.950762161778255e+17,
                    1.9482565992398154e+17,
                    1.945754187001242e+17,
                    1.9432547763061043e+17,
                    1.9407585925293917e+17,
                    1.938265684208514e+17,
                    1.9357757995232496e+17,
                    1.933289046597586e+17,
                    1.9308195239579302e+17
                  ],
                  [
                    2.130998335375239e+17,
                    2.13099657523642e+17,
                    2.130994304833562e+17,
                    2.1309915915356458e+17,
                    2.130988134497463e+17,
                    2.1309835684940374e+17,
                    2.130977296004591e+17,
                    2.13096843321268e+17,
                    2.1309557910186506e+17,
                    2.1309384595706e+17,
                    2.130914478596177e+17,
                    2.1308809851541293e+17,
                    2.1308342733041837e+17,
                    2.130768421038452e+17,
                    2.1306742575247056e+17,
                    2.1305392384375133e+17,
                    2.1303482064541155e+17,
                    2.1300835686299814e+17,
                    2.129717626733183e+17,
                    2.1292347323562253e+17,
                    2.128623135968943e+17,
                    2.1278660264676963e+17,
                    2.1269479133825027e+17,
                    2.1258657597693037e+17,
                    2.1246000660057034e+17,
                    2.123136504010261e+17,
                    2.121458027765685e+17,
                    2.1195131218510026e+17,
                    2.117286965338676e+17,
                    2.1148999392276784e+17,
                    2.1122679375818384e+17,
                    2.1096595175975478e+17,
                    2.106977233167048e+17,
                    2.10415060493547e+17,
                    2.1013632471408726e+17,
                    2.0982681407232093e+17,
                    2.0951082729374704e+17,
                    2.0916384050795786e+17,
                    2.0878927994477306e+17,
                    2.083814489270705e+17,
                    2.0792340740330605e+17,
                    2.07422703699394e+17,
                    2.0684275481093792e+17,
                    2.061888304360404e+17,
                    2.0542556313739235e+17,
                    2.0456706153182566e+17,
                    2.0391843134750774e+17,
                    2.032748638289874e+17,
                    2.026328226721317e+17,
                    2.0199260282372022e+17,
                    2.0135468873026934e+17,
                    2.0071867192428006e+17,
                    2.000843680823431e+17,
                    1.9945207020086054e+17,
                    1.9882298203079354e+17,
                    1.984047856161963e+17,
                    1.9798746022817962e+17,
                    1.9757100390741056e+17,
                    1.9715533157875446e+17,
                    1.9674052232496886e+17,
                    1.9640930938182957e+17,
                    1.9616124428417222e+17,
                    1.959134815755074e+17,
                    1.9566656513074227e+17,
                    1.954202619312747e+17,
                    1.951742655374316e+17,
                    1.949285721515973e+17,
                    1.9468316717964797e+17,
                    1.9443807276236083e+17,
                    1.9419329367834794e+17,
                    1.9394880521658032e+17,
                    1.9370461801097632e+17,
                    1.9346211655139766e+17
                  ]
                ]
              },
              {
                "op": "const",
                "args": [],
                "value": [
                  -0.2,
                  -0.18,
                  -0.16,
                  -0.14,
                  -0.12,
                  -0.1,
                  -0.08,
                  -0.06,
                  -0.04,
                  -0.02,
                  0.0,
                  0.02,
                  0.04,
                  0.06,
                  0.08,
                  0.1,
                  0.12,
                  0.14,
                  0.16,
                  0.18,
                  0.2,
                  0.22,
                  0.24,
                  0.26,
                  0.28,
                  0.3,
                  0.32,
                  0.34,
                  0.36,
                  0.38,
                  0.4,
                  0.42,
                  0.44,
                  0.46,
                  0.48,
                  0.5,
                  0.52,
                  0.54,
                  0.56,
                  0.58,
                  0.6,
                  0.62,
                  0.64,
                  0.66,
                  0.68,
                  0.7,
                  0.72,
                  0.74,
                  0.76,
                  0.78,
                  0.8,
                  0.82,
                  0.84,
                  0.86,
                  0.88,
                  0.9,
                  0.92,
                  0.94,
                  0.96,
                  0.98,
                  1.0
                ]
              },
              {
                "op": "const",
                "args": [],
                "value": [
                  1.0,
                  2.0,
                  3.27,
                  4.758501,
                  6.600001,
                  8.934502,
                  11.9703,
                  15.9495,
                  21.134900000000002,
                  27.85261,
                  36.50411,
                  47.58061,
                  61.677910000000004,
                  79.51341,
                  101.94399999999999,
                  130.05100000000002,
                  165.079,
                  208.497,
                  262.0211,
                  327.6431,
                  407.6571,
                  504.68010000000004,
                  621.6801,
                  761.9842,
                  929.2942,
                  1127.69,
                  1364.34,
                  1645.71,
                  1979.1599999999999,
                  2373.0409999999997,
                  2836.781,
                  3381.0009999999997,
                  4017.541,
                  4764.391,
                  5638.791,
                  6660.340999999999,
                  7851.231,
                  9236.572,
                  10866.3,
                  12783.7,
                  15039.3,
                  17693.000828373722,
                  20824.424533125002,
                  24524.617303,
                  28892.7350795,
                  33900.5327825,
                  37707.0069325,
                  41515.473882499995,
                  45326.94195749999,
                  49140.0941075,
                  52954.9899575,
                  56770.5907075,
                  60587.975764999996,
                  64405.352015,
                  68223.863065,
                  70769.8899875,
                  73315.96938,
                  75862.1022425,
                  78408.7993675,
                  80955.56695000001,
                  82992.944115,
                  84521.10868749999,
                  86049.3406425,
                  87577.6286675,
                  89105.9166925,
                  90634.22485,
                  92162.57442500001,
                  93691.05410000001,
                  95219.523775,
                  96747.95112499999,
                  98276.48814999999,
                  99805.06622600001,
                  101325.0
                ]
              },
              "CSZA",
              "P"
            ]
          }
        }
      },
      "equations": [],
      "tests": [
        {
          "id": "surface_moderate_sun",
          "description": "Surface pressure (P = 101325 Pa, exact grid point) with moderate-sun illumination (CSZA = 0.5, exact grid point). Short-UV bands 1-9 (187-261 nm) fully attenuated; bands 10-11 (267-277 nm) partially attenuated; bands 12-18 increasing with wavelength. Exact bilinear lookup (no interpolation error).",
          "parameter_overrides": {
            "CSZA": 0.5,
            "P": 101325.0
          },
          "time_span": {
            "start": 0.0,
            "end": 1.0
          },
          "tolerance": {
            "rel": 1e-09,
            "abs": 1e-30
          },
          "assertions": [
            {
              "variable": "F_187",
              "time": 0.0,
              "expected": 0.0
            },
            {
              "variable": "F_191",
              "time": 0.0,
              "expected": 0.0
            },
            {
              "variable": "F_193",
              "time": 0.0,
              "expected": 0.0
            },
            {
              "variable": "F_196",
              "time": 0.0,
              "expected": 0.0
            },
            {
              "variable": "F_202",
              "time": 0.0,
              "expected": 0.0
            },
            {
              "variable": "F_208",
              "time": 0.0,
              "expected": 0.0
            },
            {
              "variable": "F_211",
              "time": 0.0,
              "expected": 0.0
            },
            {
              "variable": "F_214",
              "time": 0.0,
              "expected": 0.0
            },
            {
              "variable": "F_261",
              "time": 0.0,
              "expected": 0.0
            },
            {
              "variable": "F_267",
              "time": 0.0,
              "expected": 2.5734671660232324e-15
            },
            {
              "variable": "F_277",
              "time": 0.0,
              "expected": 2.674067969416066
            },
            {
              "variable": "F_295",
              "time": 0.0,
              "expected": 73382312.39024757
            },
            {
              "variable": "F_303",
              "time": 0.0,
              "expected": 1218706993587.6394
            },
            {
              "variable": "F_310",
              "time": 0.0,
              "expected": 13678230503165.53
            },
            {
              "variable": "F_316",
              "time": 0.0,
              "expected": 69375818037263.586
            },
            {
              "variable": "F_333",
              "time": 0.0,
              "expected": 749538741235622.0
            },
            {
              "variable": "F_380",
              "time": 0.0,
              "expected": 6324332318065661.0
            },
            {
              "variable": "F_574",
              "time": 0.0,
              "expected": 1.7578411612413894e+17
            }
          ]
        },
        {
          "id": "midtrop_high_sun",
          "description": "Mid-troposphere (P \u2248 52955.0 Pa, exact grid point) with high-sun (CSZA = 0.9, exact grid point). UV bands increasingly transmitted at high altitude; optical depth from surface O\u2083/O\u2082 reduced. Exact bilinear lookup.",
          "parameter_overrides": {
            "CSZA": 0.9,
            "P": 52954.9899575
          },
          "time_span": {
            "start": 0.0,
            "end": 1.0
          },
          "tolerance": {
            "rel": 1e-09,
            "abs": 1e-30
          },
          "assertions": [
            {
              "variable": "F_187",
              "time": 0.0,
              "expected": 0.0
            },
            {
              "variable": "F_191",
              "time": 0.0,
              "expected": 0.0
            },
            {
              "variable": "F_193",
              "time": 0.0,
              "expected": 0.0
            },
            {
              "variable": "F_196",
              "time": 0.0,
              "expected": 0.0018602670787121586
            },
            {
              "variable": "F_202",
              "time": 0.0,
              "expected": 28.637092644635857
            },
            {
              "variable": "F_208",
              "time": 0.0,
              "expected": 27.858139516577495
            },
            {
              "variable": "F_211",
              "time": 0.0,
              "expected": 76.86141829586397
            },
            {
              "variable": "F_214",
              "time": 0.0,
              "expected": 33.62310863470869
            },
            {
              "variable": "F_261",
              "time": 0.0,
              "expected": 0.0
            },
            {
              "variable": "F_267",
              "time": 0.0,
              "expected": 0.6044716639470811
            },
            {
              "variable": "F_277",
              "time": 0.0,
              "expected": 48486234.487807855
            },
            {
              "variable": "F_295",
              "time": 0.0,
              "expected": 214876587854.24377
            },
            {
              "variable": "F_303",
              "time": 0.0,
              "expected": 42417206515711.65
            },
            {
              "variable": "F_310",
              "time": 0.0,
              "expected": 121914019802662.66
            },
            {
              "variable": "F_316",
              "time": 0.0,
              "expected": 363643629888151.5
            },
            {
              "variable": "F_333",
              "time": 0.0,
              "expected": 2347010950988897.0
            },
            {
              "variable": "F_380",
              "time": 0.0,
              "expected": 1.1918777908404552e+16
            },
            {
              "variable": "F_574",
              "time": 0.0,
              "expected": 2.000946922693105e+17
            }
          ]
        },
        {
          "id": "nighttime_surface",
          "description": "Nighttime / below-horizon (CSZA = -0.2, exact table minimum, flat extrapolation at left edge) at surface (P = 101325 Pa). All 18 direct-beam fluxes = 0 (no sunlight below horizon). Flat extrapolation: CSZA values < -0.2 give same result.",
          "parameter_overrides": {
            "CSZA": -0.2,
            "P": 101325.0
          },
          "time_span": {
            "start": 0.0,
            "end": 1.0
          },
          "tolerance": {
            "rel": 1e-09,
            "abs": 1e-30
          },
          "assertions": [
            {
              "variable": "F_187",
              "time": 0.0,
              "expected": 0.0
            },
            {
              "variable": "F_191",
              "time": 0.0,
              "expected": 0.0
            },
            {
              "variable": "F_193",
              "time": 0.0,
              "expected": 0.0
            },
            {
              "variable": "F_196",
              "time": 0.0,
              "expected": 0.0
            },
            {
              "variable": "F_202",
              "time": 0.0,
              "expected": 0.0
            },
            {
              "variable": "F_208",
              "time": 0.0,
              "expected": 0.0
            },
            {
              "variable": "F_211",
              "time": 0.0,
              "expected": 0.0
            },
            {
              "variable": "F_214",
              "time": 0.0,
              "expected": 0.0
            },
            {
              "variable": "F_261",
              "time": 0.0,
              "expected": 0.0
            },
            {
              "variable": "F_267",
              "time": 0.0,
              "expected": 0.0
            },
            {
              "variable": "F_277",
              "time": 0.0,
              "expected": 0.0
            },
            {
              "variable": "F_295",
              "time": 0.0,
              "expected": 0.0
            },
            {
              "variable": "F_303",
              "time": 0.0,
              "expected": 0.0
            },
            {
              "variable": "F_310",
              "time": 0.0,
              "expected": 0.0
            },
            {
              "variable": "F_316",
              "time": 0.0,
              "expected": 0.0
            },
            {
              "variable": "F_333",
              "time": 0.0,
              "expected": 0.0
            },
            {
              "variable": "F_380",
              "time": 0.0,
              "expected": 0.0
            },
            {
              "variable": "F_574",
              "time": 0.0,
              "expected": 0.0
            }
          ]
        },
        {
          "id": "near_toa_high_sun",
          "description": "Near top-of-atmosphere (P = 1.0 Pa, exact table minimum, flat extrapolation at low-P edge) with high-sun (CSZA = 0.9, exact grid point). Attenuation \u2248 1.0 for most bands; top_flux \u00d7 1 for visible. Very short UV still attenuated by upper-atmosphere O\u2082 and O\u2083.",
          "parameter_overrides": {
            "CSZA": 0.9,
            "P": 1.0
          },
          "time_span": {
            "start": 0.0,
            "end": 1.0
          },
          "tolerance": {
            "rel": 1e-09,
            "abs": 1e-30
          },
          "assertions": [
            {
              "variable": "F_187",
              "time": 0.0,
              "expected": 1277242451087.1377
            },
            {
              "variable": "F_191",
              "time": 0.0,
              "expected": 1610941997092.8684
            },
            {
              "variable": "F_193",
              "time": 0.0,
              "expected": 1661370370117.864
            },
            {
              "variable": "F_196",
              "time": 0.0,
              "expected": 927264136868.9216
            },
            {
              "variable": "F_202",
              "time": 0.0,
              "expected": 7838550193546.301
            },
            {
              "variable": "F_208",
              "time": 0.0,
              "expected": 4678097757208.721
            },
            {
              "variable": "F_211",
              "time": 0.0,
              "expected": 9914298753442.41
            },
            {
              "variable": "F_214",
              "time": 0.0,
              "expected": 12185784176451.486
            },
            {
              "variable": "F_261",
              "time": 0.0,
              "expected": 636371351410952.1
            },
            {
              "variable": "F_267",
              "time": 0.0,
              "expected": 404878514806468.9
            },
            {
              "variable": "F_277",
              "time": 0.0,
              "expected": 314986761625722.0
            },
            {
              "variable": "F_295",
              "time": 0.0,
              "expected": 588890729138730.6
            },
            {
              "variable": "F_303",
              "time": 0.0,
              "expected": 767789910219164.6
            },
            {
              "variable": "F_310",
              "time": 0.0,
              "expected": 504494087805593.1
            },
            {
              "variable": "F_316",
              "time": 0.0,
              "expected": 890190502661233.2
            },
            {
              "variable": "F_333",
              "time": 0.0,
              "expected": 3852967043198256.0
            },
            {
              "variable": "F_380",
              "time": 0.0,
              "expected": 1.5469923717554242e+16
            },
            {
              "variable": "F_574",
              "time": 0.0,
              "expected": 2.1309981418246835e+17
            }
          ]
        }
      ]
    }
  }
}
